version 3
run Wireless10-0-20260603-22:44:13-164263
attr configname Wireless10
attr datetime 20260603-22:44:13
attr datetimef 20260603-224413
attr experiment Wireless10
attr inifile omnetpp.ini
attr iterationvars ""
attr iterationvarsd ""
attr iterationvarsf ""
attr measurement ""
attr network WirelessB2
attr processid 164263
attr repetition 0
attr replication #0
attr resultdir results
attr runnumber 0
attr seedset 0
config image-path ../inet-4.6.0/images
config description "Configuring ad-hoc routing (AODV)"
config extends Wireless09
config *.configurator.addStaticRoutes false
config *.host*.typename AodvRouter
config *.hostB.wlan[0].radio.displayCommunicationRange true
config *.visualizer.dataLinkVisualizer.packetFilter "\"AODV*\""
config description "Configuring node movements"
config extends Wireless08
config *.hostR*.mobility.typename LinearMobility
config *.hostR*.mobility.speed 12mps
config *.hostR*.mobility.initialMovementHeading 270deg
config *.host*.wlan[0].queue.packetCapacity 10
config *.visualizer.mobilityVisualizer.displayVelocities true
config *.visualizer.mobilityVisualizer.displayMovementTrails true
config description "Modeling energy consumption"
config extends Wireless07
config *.host*.wlan[0].radio.energyConsumer.typename StateBasedEpEnergyConsumer
config *.host*.wlan[0].radio.energyConsumer.offPowerConsumption 0mW
config *.host*.wlan[0].radio.energyConsumer.sleepPowerConsumption 1mW
config *.host*.wlan[0].radio.energyConsumer.switchingPowerConsumption 1mW
config *.host*.wlan[0].radio.energyConsumer.receiverIdlePowerConsumption 2mW
config *.host*.wlan[0].radio.energyConsumer.receiverBusyPowerConsumption 5mW
config *.host*.wlan[0].radio.energyConsumer.receiverReceivingPowerConsumption 10mW
config *.host*.wlan[0].radio.energyConsumer.transmitterIdlePowerConsumption 2mW
config *.host*.wlan[0].radio.energyConsumer.transmitterTransmittingPowerConsumption 100mW
config *.host*.energyStorage.typename IdealEpEnergyStorage
config *.host*.wlan[0].radio.displayInterferenceRange false
config *.hostR1.wlan[0].radio.displayCommunicationRange false
config *.visualizer.mediumVisualizer.displaySignals false
config description "Turning on ACKs in CSMA"
config extends Wireless06
config *.host*.wlan[0].mac.useAck true
config description "Using CSMA to better utilize the medium"
config extends Wireless05
config *.host*.wlan[0].typename WirelessInterface
config *.host*.wlan[0].radio.typename GenericRadio
config *.host*.wlan[0].mac.typename CsmaCaMac
config *.host*.wlan[0].mac.ackTimeout 300us
config *.host*.wlan[0].queue.typename DropTailQueue
config *.host*.wlan[0].queue.packetCapacity -1
config description "Taking interference into account"
config extends Wireless04
config *.host*.wlan[0].radio.receiver.ignoreInterference false
config *.host*.wlan[0].radio.transmitter.analogModel.interferenceRange 500m
config *.hostA.wlan[0].radio.displayInterferenceRange true
config *.visualizer.dataLinkVisualizer.packetFilter "\"\""
config description "Setting up static routing"
config extends Wireless03
config *.host*.forwarding true
config *.configurator.config "xml(\"<config><interface hosts='**' address='10.0.0.x' netmask='255.255.255.0'/><autoroute metric='errorRate'/></config>\")"
config *.configurator.optimizeRoutes false
config *.host*.ipv4.routingTable.netmaskRoutes "\"\""
config *.visualizer.physicalLinkVisualizer.displayLinks true
config *.visualizer.dataLinkVisualizer.displayLinks true
config *.visualizer.networkRouteVisualizer.displayRoutes true
config *.visualizer.*LinkVisualizer.lineShift 0
config *.visualizer.networkRouteVisualizer.lineShift 0
config *.visualizer.networkRouteVisualizer.packetFilter "\"UDPData*\""
config description "Adding more nodes and decreasing the communication range"
config extends Wireless02
config network WirelessB2
config *.host*.wlan[0].radio.transmitter.analogModel.communicationRange 250m
config *.hostR1.wlan[0].radio.displayCommunicationRange true
config *.hostR2.wlan[0].radio.displayCommunicationRange true
config *.hostR3.wlan[0].radio.displayCommunicationRange true
config description "Setting up some animations"
config extends Wireless01
config *.hostA.wlan[0].radio.displayCommunicationRange true
config *.visualizer.sceneVisualizer.descriptionFigure "\"title\""
config *.visualizer.mediumVisualizer.displaySignals true
config *.visualizer.physicalLinkVisualizer.displayLinks true
config *.visualizer.physicalLinkVisualizer.packetFilter "\"UDPData*\""
config description "Two hosts communicating wirelessly"
config network WirelessA2
config sim-time-limit 20s
config *.radioMedium.signalAnalogRepresentation "\"unitDisk\""
config *.host*.ipv4.arp.typename GlobalArp
config *.hostA.numApps 1
config *.hostA.app[0].typename UdpBasicApp
config *.hostA.app[0].destAddresses "\"hostB\""
config *.hostA.app[0].destPort 5000
config *.hostA.app[0].messageLength 1000B
config *.hostA.app[0].sendInterval exponential(12ms)
config *.hostA.app[0].packetName "\"UDPData\""
config *.hostB.numApps 1
config *.hostB.app[0].typename UdpSink
config *.hostB.app[0].localPort 5000
config *.host*.wlan[0].typename AckingWirelessInterface
config *.host*.wlan[0].mac.useAck false
config *.host*.wlan[0].mac.fullDuplex false
config *.host*.wlan[0].radio.signalAnalogRepresentation "\"unitDisk\""
config *.host*.wlan[0].radio.transmitter.analogModel.communicationRange 500m
config *.host*.wlan[0].radio.receiver.ignoreInterference true
config *.host*.wlan[0].mac.headerLength 23B
config *.host*.**.bitrate 1Mbps

vector 0 WirelessB2.hostA.energyStorage powerConsumption:vector ETV
attr interpolationmode sample-hold
attr recordingmode vector
attr source powerConsumptionChanged
attr title "Power consumption"
attr unit W
vector 1 WirelessB2.hostA.energyStorage powerGeneration:vector ETV
attr interpolationmode sample-hold
attr recordingmode vector
attr source powerGenerationChanged
attr title "Power generation"
attr unit W
vector 2 WirelessB2.hostA.energyStorage residualEnergyCapacity:vector ETV
attr interpolationmode linear
attr recordingmode vector
attr source residualEnergyCapacityChanged
attr title "Residual energy capacity"
attr unit J
vector 3 WirelessB2.hostA.lo[0].lo rcvdPkFromHl:vector(packetBytes) ETV
attr interpolationmode none
attr recordingmode vector(packetBytes)
attr source packetReceivedFromUpper
attr title "packets received from higher layer, packetBytes"
vector 4 WirelessB2.hostA.lo[0].lo passedUpPk:vector(packetBytes) ETV
attr interpolationmode none
attr recordingmode vector(packetBytes)
attr source packetSentToUpper
attr title "packets passed to higher layer, packetBytes"
vector 5 WirelessB2.hostA.lo[0] packetDropInterfaceDown:vector(packetBytes) ETV
attr interpolationmode none
attr recordingmode vector(packetBytes)
attr source packetDropReasonIsInterfaceDown(packetDropped)
attr title "packet drops: interface down, packetBytes"
vector 6 WirelessB2.hostA.lo[0] packetDropNoCarrier:vector(packetBytes) ETV
attr interpolationmode none
attr recordingmode vector(packetBytes)
attr source packetDropReasonIsNoCarrier(packetDropped)
attr title "packet drops: no carrier, packetBytes"
vector 7 WirelessB2.hostA.wlan[0].queue queueLength:vector ETV
attr autoWarmupFilter false
attr interpolationmode sample-hold
attr recordingmode vector
attr source "warmup(atomic(constant0(packetPushEnded) + count(packetPushStarted) - count(packetPulled) - count(packetRemoved) - count(packetDropped)))"
attr title "queue length"
attr unit pk
vector 8 WirelessB2.hostA.wlan[0].queue queueBitLength:vector ETV
attr autoWarmupFilter false
attr interpolationmode sample-hold
attr recordingmode vector
attr source "warmup(atomic(constant0(packetPushEnded) + sum(packetLength(packetPushStarted)) - sum(packetLength(packetPulled)) - sum(packetLength(packetRemoved)) - sum(packetLength(packetDropped))))"
attr title "queue bit length"
attr unit b
vector 9 WirelessB2.hostA.wlan[0].queue queueingTime:vector ETV
attr interpolationmode none
attr recordingmode vector
attr source queueingTime(packetPulled)
attr title "queueing times"
attr unit s
vector 10 WirelessB2.hostA.wlan[0].queue incomingPacketLengths:vector ETV
attr interpolationmode none
attr recordingmode vector
attr source packetLength(packetPushStarted)
attr title "incoming packet lengths"
attr unit b
vector 11 WirelessB2.hostA.wlan[0].queue incomingDataRate:vector ETV
attr interpolationmode linear
attr recordingmode vector
attr source throughput(packetPushStarted)
attr title "incoming datarate"
attr unit bps
vector 12 WirelessB2.hostA.wlan[0].queue outgoingPacketLengths:vector ETV
attr interpolationmode none
attr recordingmode vector
attr source packetLength(packetPulled)
attr title "outgoing packet lengths"
attr unit b
vector 13 WirelessB2.hostA.wlan[0].queue outgoingDataRate:vector ETV
attr interpolationmode linear
attr recordingmode vector
attr source throughput(packetPulled)
attr title "outgoing datarate"
attr unit bps
vector 14 WirelessB2.hostA.wlan[0].queue droppedPacketLengthsQueueOverflow:vector ETV
attr interpolationmode none
attr recordingmode vector
attr source packetLength(packetDropReasonIsQueueOverflow(packetDropped))
attr title "dropped packet lengths: queue overflow"
attr unit b
vector 15 WirelessB2.hostA.wlan[0].queue flowQueueingTime:vector ETV
attr interpolationmode none
attr recordingmode vector
attr source queueingTime(demuxFlow(packetPulled))
attr title "flow queueing times"
attr unit s
vector 16 WirelessB2.hostA.wlan[0].queue flowIncomingDataRate:vector ETV
attr interpolationmode linear
attr recordingmode vector
attr source throughput(flowPacketLength(demuxFlow(packetPushStarted)))
attr title "flow specific incoming data rate"
attr unit bps
vector 17 WirelessB2.hostA.wlan[0].queue flowOutgoingDataRate:vector ETV
attr interpolationmode linear
attr recordingmode vector
attr source throughput(flowPacketLength(demuxFlow(packetPulled)))
attr title "flow specific outgoing data rate"
attr unit bps
vector 18 WirelessB2.hostA.wlan[0].mac packetDropIncorrectlyReceived:vector(packetBytes) ETV
attr interpolationmode none
attr recordingmode vector(packetBytes)
attr source packetDropReasonIsIncorrectlyReceived(packetDropped)
attr title "packet drop: incorrectly received, packetBytes"
vector 19 WirelessB2.hostA.wlan[0].mac packetDropNotAddressedToUs:vector(packetBytes) ETV
attr interpolationmode none
attr recordingmode vector(packetBytes)
attr source packetDropReasonIsNotAddressedToUs(packetDropped)
attr title "packet drop: not addressed to us, packetBytes"
vector 20 WirelessB2.hostA.wlan[0].mac packetDropQueueOverflow:vector(packetBytes) ETV
attr interpolationmode none
attr recordingmode vector(packetBytes)
attr source packetDropReasonIsQueueOverflow(packetDropped)
attr title "packet drop: queue overflow, packetBytes"
vector 21 WirelessB2.hostA.wlan[0].mac packetDropRetryLimitReached:vector(packetBytes) ETV
attr interpolationmode none
attr recordingmode vector(packetBytes)
attr source packetDropReasonIsRetryLimitReached(packetDropped)
attr title "packet drop: retry limit reached, packetBytes"
vector 22 WirelessB2.hostA.wlan[0].radio.energyConsumer powerConsumption:vector ETV
attr interpolationmode sample-hold
attr recordingmode vector
attr source powerConsumptionChanged
attr title "Power consumption"
attr unit W
vector 23 WirelessB2.hostA.wlan[0].radio radioMode:vector ETV
attr enum OFF,SLEEP,RECEIVER,TRANSMITTER,TRANSCEIVER,SWITCHING
attr interpolationmode sample-hold
attr recordingmode vector
attr source radioModeChanged
attr title "Radio mode"
attr type enum
vector 24 WirelessB2.hostA.wlan[0].radio receptionState:vector ETV
attr enum UNDEFINED,IDLE,BUSY,RECEIVING
attr interpolationmode sample-hold
attr recordingmode vector
attr source receptionStateChanged
attr title "Radio reception state"
attr type enum
vector 25 WirelessB2.hostA.wlan[0].radio transmissionState:vector ETV
attr enum UNDEFINED,IDLE,TRANSMITTING
attr interpolationmode sample-hold
attr recordingmode vector
attr source transmissionStateChanged
attr title "Radio transmission state"
attr type enum
vector 26 WirelessB2.hostA.wlan[0] packetDropInterfaceDown:vector(packetBytes) ETV
attr interpolationmode none
attr recordingmode vector(packetBytes)
attr source packetDropReasonIsInterfaceDown(packetDropped)
attr title "packet drops: interface down, packetBytes"
vector 27 WirelessB2.hostA.wlan[0] packetDropNoCarrier:vector(packetBytes) ETV
attr interpolationmode none
attr recordingmode vector(packetBytes)
attr source packetDropReasonIsNoCarrier(packetDropped)
attr title "packet drops: no carrier, packetBytes"
vector 28 WirelessB2.hostA.ipv4.ip packetDropAddressResolutionFailed:vector(packetBytes) ETV
attr interpolationmode none
attr recordingmode vector(packetBytes)
attr source packetDropReasonIsAddressResolutionFailed(packetDropped)
attr title "packet drop: address resolution failed, packetBytes"
vector 29 WirelessB2.hostA.ipv4.ip packetDropHopLimitReached:vector(packetBytes) ETV
attr interpolationmode none
attr recordingmode vector(packetBytes)
attr source packetDropReasonIsHopLimitReached(packetDropped)
attr title "packet drop: hop limit reached, packetBytes"
vector 30 WirelessB2.hostA.ipv4.ip packetDropForwardingDisabled:vector(packetBytes) ETV
attr interpolationmode none
attr recordingmode vector(packetBytes)
attr source packetDropReasonIsForwardingDisabled(packetDropped)
attr title "packet drop: forwarding disabled, packetBytes"
vector 31 WirelessB2.hostA.ipv4.ip packetDropLifetimeExpired:vector(packetBytes) ETV
attr interpolationmode none
attr recordingmode vector(packetBytes)
attr source packetDropReasonIsLifetimeExpired(packetDropped)
attr title "packet drop: lifetime expired, packetBytes"
vector 32 WirelessB2.hostA.ipv4.ip packetDropNoInterfaceFound:vector(packetBytes) ETV
attr interpolationmode none
attr recordingmode vector(packetBytes)
attr source packetDropReasonIsNoInterfaceFound(packetDropped)
attr title "packet drop: no interface found, packetBytes"
vector 33 WirelessB2.hostA.ipv4.ip packetDropNoRouteFound:vector(packetBytes) ETV
attr interpolationmode none
attr recordingmode vector(packetBytes)
attr source packetDropReasonIsNoRouteFound(packetDropped)
attr title "packet drop: no route found, packetBytes"
vector 34 WirelessB2.hostA.ipv4.ip packetDropUndefined:vector(packetBytes) ETV
attr interpolationmode none
attr recordingmode vector(packetBytes)
attr source packetDropReasonIsUndefined(packetDropped)
attr title "packet drop: undefined, packetBytes"
vector 35 WirelessB2.hostA.udp packetSent:vector(packetBytes) ETV
attr interpolationmode none
attr recordingmode vector(packetBytes)
attr source packetSent
attr title "packets sent, packetBytes"
vector 36 WirelessB2.hostA.udp outgoingDataRate:vector ETV
attr interpolationmode linear
attr recordingmode vector
attr source throughput(packetSent)
attr title "outgoing datarate"
attr unit bps
vector 37 WirelessB2.hostA.udp packetReceived:vector(packetBytes) ETV
attr interpolationmode none
attr recordingmode vector(packetBytes)
attr source packetReceived
attr title "packets received, packetBytes"
vector 38 WirelessB2.hostA.udp passedUpPk:vector(count) ETV
attr interpolationmode none
attr recordingmode vector(count)
attr source packetSentToUpper
attr title "packets passed up, count"
vector 39 WirelessB2.hostA.udp droppedPkWrongPort:vector(count) ETV
attr interpolationmode none
attr recordingmode vector(count)
attr source packetDropReasonIsNoPortFound(packetDropped)
attr title "packets dropped (wrong port), count"
vector 40 WirelessB2.hostA.udp droppedPkBadChecksum:vector(count) ETV
attr interpolationmode none
attr recordingmode vector(count)
attr source packetDropReasonIsIncorrectlyReceived(packetDropped)
attr title "packets dropped (checksum error), count"
vector 41 WirelessB2.hostA.app[0] packetReceived:vector(packetBytes) ETV
attr interpolationmode none
attr recordingmode vector(packetBytes)
attr source packetReceived
attr title "packets received, packetBytes"
vector 42 WirelessB2.hostA.app[0] throughput:vector ETV
attr recordingmode vector
attr source throughput(packetReceived)
attr title throughput
attr unit bps
vector 43 WirelessB2.hostA.app[0] packetSent:vector(packetBytes) ETV
attr interpolationmode none
attr recordingmode vector(packetBytes)
attr source packetSent
attr title "packets sent, packetBytes"
vector 44 WirelessB2.hostA.app[0] rcvdPkLifetime:vector ETV
attr interpolationmode none
attr recordingmode vector
attr source dataAge(packetReceived)
attr title "received packet lifetime"
attr unit s
vector 45 WirelessB2.hostA.app[0] rcvdPkSeqNo:vector ETV
attr interpolationmode none
attr recordingmode vector
attr source appPkSeqNo(packetReceived)
attr title "received packet sequence number"
vector 46 WirelessB2.hostB.energyStorage powerConsumption:vector ETV
attr interpolationmode sample-hold
attr recordingmode vector
attr source powerConsumptionChanged
attr title "Power consumption"
attr unit W
vector 47 WirelessB2.hostB.energyStorage powerGeneration:vector ETV
attr interpolationmode sample-hold
attr recordingmode vector
attr source powerGenerationChanged
attr title "Power generation"
attr unit W
vector 48 WirelessB2.hostB.energyStorage residualEnergyCapacity:vector ETV
attr interpolationmode linear
attr recordingmode vector
attr source residualEnergyCapacityChanged
attr title "Residual energy capacity"
attr unit J
vector 49 WirelessB2.hostB.lo[0].lo rcvdPkFromHl:vector(packetBytes) ETV
attr interpolationmode none
attr recordingmode vector(packetBytes)
attr source packetReceivedFromUpper
attr title "packets received from higher layer, packetBytes"
vector 50 WirelessB2.hostB.lo[0].lo passedUpPk:vector(packetBytes) ETV
attr interpolationmode none
attr recordingmode vector(packetBytes)
attr source packetSentToUpper
attr title "packets passed to higher layer, packetBytes"
vector 51 WirelessB2.hostB.lo[0] packetDropInterfaceDown:vector(packetBytes) ETV
attr interpolationmode none
attr recordingmode vector(packetBytes)
attr source packetDropReasonIsInterfaceDown(packetDropped)
attr title "packet drops: interface down, packetBytes"
vector 52 WirelessB2.hostB.lo[0] packetDropNoCarrier:vector(packetBytes) ETV
attr interpolationmode none
attr recordingmode vector(packetBytes)
attr source packetDropReasonIsNoCarrier(packetDropped)
attr title "packet drops: no carrier, packetBytes"
vector 53 WirelessB2.hostB.wlan[0].queue queueLength:vector ETV
attr autoWarmupFilter false
attr interpolationmode sample-hold
attr recordingmode vector
attr source "warmup(atomic(constant0(packetPushEnded) + count(packetPushStarted) - count(packetPulled) - count(packetRemoved) - count(packetDropped)))"
attr title "queue length"
attr unit pk
vector 54 WirelessB2.hostB.wlan[0].queue queueBitLength:vector ETV
attr autoWarmupFilter false
attr interpolationmode sample-hold
attr recordingmode vector
attr source "warmup(atomic(constant0(packetPushEnded) + sum(packetLength(packetPushStarted)) - sum(packetLength(packetPulled)) - sum(packetLength(packetRemoved)) - sum(packetLength(packetDropped))))"
attr title "queue bit length"
attr unit b
vector 55 WirelessB2.hostB.wlan[0].queue queueingTime:vector ETV
attr interpolationmode none
attr recordingmode vector
attr source queueingTime(packetPulled)
attr title "queueing times"
attr unit s
vector 56 WirelessB2.hostB.wlan[0].queue incomingPacketLengths:vector ETV
attr interpolationmode none
attr recordingmode vector
attr source packetLength(packetPushStarted)
attr title "incoming packet lengths"
attr unit b
vector 57 WirelessB2.hostB.wlan[0].queue incomingDataRate:vector ETV
attr interpolationmode linear
attr recordingmode vector
attr source throughput(packetPushStarted)
attr title "incoming datarate"
attr unit bps
vector 58 WirelessB2.hostB.wlan[0].queue outgoingPacketLengths:vector ETV
attr interpolationmode none
attr recordingmode vector
attr source packetLength(packetPulled)
attr title "outgoing packet lengths"
attr unit b
vector 59 WirelessB2.hostB.wlan[0].queue outgoingDataRate:vector ETV
attr interpolationmode linear
attr recordingmode vector
attr source throughput(packetPulled)
attr title "outgoing datarate"
attr unit bps
vector 60 WirelessB2.hostB.wlan[0].queue droppedPacketLengthsQueueOverflow:vector ETV
attr interpolationmode none
attr recordingmode vector
attr source packetLength(packetDropReasonIsQueueOverflow(packetDropped))
attr title "dropped packet lengths: queue overflow"
attr unit b
vector 61 WirelessB2.hostB.wlan[0].queue flowQueueingTime:vector ETV
attr interpolationmode none
attr recordingmode vector
attr source queueingTime(demuxFlow(packetPulled))
attr title "flow queueing times"
attr unit s
vector 62 WirelessB2.hostB.wlan[0].queue flowIncomingDataRate:vector ETV
attr interpolationmode linear
attr recordingmode vector
attr source throughput(flowPacketLength(demuxFlow(packetPushStarted)))
attr title "flow specific incoming data rate"
attr unit bps
vector 63 WirelessB2.hostB.wlan[0].queue flowOutgoingDataRate:vector ETV
attr interpolationmode linear
attr recordingmode vector
attr source throughput(flowPacketLength(demuxFlow(packetPulled)))
attr title "flow specific outgoing data rate"
attr unit bps
vector 64 WirelessB2.hostB.wlan[0].mac packetDropIncorrectlyReceived:vector(packetBytes) ETV
attr interpolationmode none
attr recordingmode vector(packetBytes)
attr source packetDropReasonIsIncorrectlyReceived(packetDropped)
attr title "packet drop: incorrectly received, packetBytes"
vector 65 WirelessB2.hostB.wlan[0].mac packetDropNotAddressedToUs:vector(packetBytes) ETV
attr interpolationmode none
attr recordingmode vector(packetBytes)
attr source packetDropReasonIsNotAddressedToUs(packetDropped)
attr title "packet drop: not addressed to us, packetBytes"
vector 66 WirelessB2.hostB.wlan[0].mac packetDropQueueOverflow:vector(packetBytes) ETV
attr interpolationmode none
attr recordingmode vector(packetBytes)
attr source packetDropReasonIsQueueOverflow(packetDropped)
attr title "packet drop: queue overflow, packetBytes"
vector 67 WirelessB2.hostB.wlan[0].mac packetDropRetryLimitReached:vector(packetBytes) ETV
attr interpolationmode none
attr recordingmode vector(packetBytes)
attr source packetDropReasonIsRetryLimitReached(packetDropped)
attr title "packet drop: retry limit reached, packetBytes"
vector 68 WirelessB2.hostB.wlan[0].radio.energyConsumer powerConsumption:vector ETV
attr interpolationmode sample-hold
attr recordingmode vector
attr source powerConsumptionChanged
attr title "Power consumption"
attr unit W
vector 69 WirelessB2.hostB.wlan[0].radio radioMode:vector ETV
attr enum OFF,SLEEP,RECEIVER,TRANSMITTER,TRANSCEIVER,SWITCHING
attr interpolationmode sample-hold
attr recordingmode vector
attr source radioModeChanged
attr title "Radio mode"
attr type enum
vector 70 WirelessB2.hostB.wlan[0].radio receptionState:vector ETV
attr enum UNDEFINED,IDLE,BUSY,RECEIVING
attr interpolationmode sample-hold
attr recordingmode vector
attr source receptionStateChanged
attr title "Radio reception state"
attr type enum
vector 71 WirelessB2.hostB.wlan[0].radio transmissionState:vector ETV
attr enum UNDEFINED,IDLE,TRANSMITTING
attr interpolationmode sample-hold
attr recordingmode vector
attr source transmissionStateChanged
attr title "Radio transmission state"
attr type enum
vector 72 WirelessB2.hostB.wlan[0] packetDropInterfaceDown:vector(packetBytes) ETV
attr interpolationmode none
attr recordingmode vector(packetBytes)
attr source packetDropReasonIsInterfaceDown(packetDropped)
attr title "packet drops: interface down, packetBytes"
vector 73 WirelessB2.hostB.wlan[0] packetDropNoCarrier:vector(packetBytes) ETV
attr interpolationmode none
attr recordingmode vector(packetBytes)
attr source packetDropReasonIsNoCarrier(packetDropped)
attr title "packet drops: no carrier, packetBytes"
vector 74 WirelessB2.hostB.ipv4.ip packetDropAddressResolutionFailed:vector(packetBytes) ETV
attr interpolationmode none
attr recordingmode vector(packetBytes)
attr source packetDropReasonIsAddressResolutionFailed(packetDropped)
attr title "packet drop: address resolution failed, packetBytes"
vector 75 WirelessB2.hostB.ipv4.ip packetDropHopLimitReached:vector(packetBytes) ETV
attr interpolationmode none
attr recordingmode vector(packetBytes)
attr source packetDropReasonIsHopLimitReached(packetDropped)
attr title "packet drop: hop limit reached, packetBytes"
vector 76 WirelessB2.hostB.ipv4.ip packetDropForwardingDisabled:vector(packetBytes) ETV
attr interpolationmode none
attr recordingmode vector(packetBytes)
attr source packetDropReasonIsForwardingDisabled(packetDropped)
attr title "packet drop: forwarding disabled, packetBytes"
vector 77 WirelessB2.hostB.ipv4.ip packetDropLifetimeExpired:vector(packetBytes) ETV
attr interpolationmode none
attr recordingmode vector(packetBytes)
attr source packetDropReasonIsLifetimeExpired(packetDropped)
attr title "packet drop: lifetime expired, packetBytes"
vector 78 WirelessB2.hostB.ipv4.ip packetDropNoInterfaceFound:vector(packetBytes) ETV
attr interpolationmode none
attr recordingmode vector(packetBytes)
attr source packetDropReasonIsNoInterfaceFound(packetDropped)
attr title "packet drop: no interface found, packetBytes"
vector 79 WirelessB2.hostB.ipv4.ip packetDropNoRouteFound:vector(packetBytes) ETV
attr interpolationmode none
attr recordingmode vector(packetBytes)
attr source packetDropReasonIsNoRouteFound(packetDropped)
attr title "packet drop: no route found, packetBytes"
vector 80 WirelessB2.hostB.ipv4.ip packetDropUndefined:vector(packetBytes) ETV
attr interpolationmode none
attr recordingmode vector(packetBytes)
attr source packetDropReasonIsUndefined(packetDropped)
attr title "packet drop: undefined, packetBytes"
vector 81 WirelessB2.hostB.udp packetSent:vector(packetBytes) ETV
attr interpolationmode none
attr recordingmode vector(packetBytes)
attr source packetSent
attr title "packets sent, packetBytes"
vector 82 WirelessB2.hostB.udp outgoingDataRate:vector ETV
attr interpolationmode linear
attr recordingmode vector
attr source throughput(packetSent)
attr title "outgoing datarate"
attr unit bps
vector 83 WirelessB2.hostB.udp packetReceived:vector(packetBytes) ETV
attr interpolationmode none
attr recordingmode vector(packetBytes)
attr source packetReceived
attr title "packets received, packetBytes"
vector 84 WirelessB2.hostB.udp passedUpPk:vector(count) ETV
attr interpolationmode none
attr recordingmode vector(count)
attr source packetSentToUpper
attr title "packets passed up, count"
vector 85 WirelessB2.hostB.udp droppedPkWrongPort:vector(count) ETV
attr interpolationmode none
attr recordingmode vector(count)
attr source packetDropReasonIsNoPortFound(packetDropped)
attr title "packets dropped (wrong port), count"
vector 86 WirelessB2.hostB.udp droppedPkBadChecksum:vector(count) ETV
attr interpolationmode none
attr recordingmode vector(count)
attr source packetDropReasonIsIncorrectlyReceived(packetDropped)
attr title "packets dropped (checksum error), count"
vector 87 WirelessB2.hostB.app[0] packetReceived:vector(packetBytes) ETV
attr interpolationmode none
attr recordingmode vector(packetBytes)
attr source packetReceived
attr title "packets received, packetBytes"
vector 88 WirelessB2.hostB.app[0] throughput:vector ETV
attr recordingmode vector
attr source throughput(packetReceived)
attr title throughput
attr unit bps
vector 89 WirelessB2.hostB.app[0] endToEndDelay:vector ETV
attr interpolationmode none
attr recordingmode vector
attr source dataAge(packetReceived)
attr title "end-to-end delay"
attr unit s
vector 90 WirelessB2.hostB.app[0] rcvdPkSeqNo:vector ETV
attr interpolationmode none
attr recordingmode vector
attr source appPkSeqNo(packetReceived)
attr title "received packet sequence number"
vector 91 WirelessB2.hostR1.energyStorage powerConsumption:vector ETV
attr interpolationmode sample-hold
attr recordingmode vector
attr source powerConsumptionChanged
attr title "Power consumption"
attr unit W
vector 92 WirelessB2.hostR1.energyStorage powerGeneration:vector ETV
attr interpolationmode sample-hold
attr recordingmode vector
attr source powerGenerationChanged
attr title "Power generation"
attr unit W
vector 93 WirelessB2.hostR1.energyStorage residualEnergyCapacity:vector ETV
attr interpolationmode linear
attr recordingmode vector
attr source residualEnergyCapacityChanged
attr title "Residual energy capacity"
attr unit J
vector 94 WirelessB2.hostR1.lo[0].lo rcvdPkFromHl:vector(packetBytes) ETV
attr interpolationmode none
attr recordingmode vector(packetBytes)
attr source packetReceivedFromUpper
attr title "packets received from higher layer, packetBytes"
vector 95 WirelessB2.hostR1.lo[0].lo passedUpPk:vector(packetBytes) ETV
attr interpolationmode none
attr recordingmode vector(packetBytes)
attr source packetSentToUpper
attr title "packets passed to higher layer, packetBytes"
vector 96 WirelessB2.hostR1.lo[0] packetDropInterfaceDown:vector(packetBytes) ETV
attr interpolationmode none
attr recordingmode vector(packetBytes)
attr source packetDropReasonIsInterfaceDown(packetDropped)
attr title "packet drops: interface down, packetBytes"
vector 97 WirelessB2.hostR1.lo[0] packetDropNoCarrier:vector(packetBytes) ETV
attr interpolationmode none
attr recordingmode vector(packetBytes)
attr source packetDropReasonIsNoCarrier(packetDropped)
attr title "packet drops: no carrier, packetBytes"
vector 98 WirelessB2.hostR1.wlan[0].queue queueLength:vector ETV
attr autoWarmupFilter false
attr interpolationmode sample-hold
attr recordingmode vector
attr source "warmup(atomic(constant0(packetPushEnded) + count(packetPushStarted) - count(packetPulled) - count(packetRemoved) - count(packetDropped)))"
attr title "queue length"
attr unit pk
vector 99 WirelessB2.hostR1.wlan[0].queue queueBitLength:vector ETV
attr autoWarmupFilter false
attr interpolationmode sample-hold
attr recordingmode vector
attr source "warmup(atomic(constant0(packetPushEnded) + sum(packetLength(packetPushStarted)) - sum(packetLength(packetPulled)) - sum(packetLength(packetRemoved)) - sum(packetLength(packetDropped))))"
attr title "queue bit length"
attr unit b
vector 100 WirelessB2.hostR1.wlan[0].queue queueingTime:vector ETV
attr interpolationmode none
attr recordingmode vector
attr source queueingTime(packetPulled)
attr title "queueing times"
attr unit s
vector 101 WirelessB2.hostR1.wlan[0].queue incomingPacketLengths:vector ETV
attr interpolationmode none
attr recordingmode vector
attr source packetLength(packetPushStarted)
attr title "incoming packet lengths"
attr unit b
vector 102 WirelessB2.hostR1.wlan[0].queue incomingDataRate:vector ETV
attr interpolationmode linear
attr recordingmode vector
attr source throughput(packetPushStarted)
attr title "incoming datarate"
attr unit bps
vector 103 WirelessB2.hostR1.wlan[0].queue outgoingPacketLengths:vector ETV
attr interpolationmode none
attr recordingmode vector
attr source packetLength(packetPulled)
attr title "outgoing packet lengths"
attr unit b
vector 104 WirelessB2.hostR1.wlan[0].queue outgoingDataRate:vector ETV
attr interpolationmode linear
attr recordingmode vector
attr source throughput(packetPulled)
attr title "outgoing datarate"
attr unit bps
vector 105 WirelessB2.hostR1.wlan[0].queue droppedPacketLengthsQueueOverflow:vector ETV
attr interpolationmode none
attr recordingmode vector
attr source packetLength(packetDropReasonIsQueueOverflow(packetDropped))
attr title "dropped packet lengths: queue overflow"
attr unit b
vector 106 WirelessB2.hostR1.wlan[0].queue flowQueueingTime:vector ETV
attr interpolationmode none
attr recordingmode vector
attr source queueingTime(demuxFlow(packetPulled))
attr title "flow queueing times"
attr unit s
vector 107 WirelessB2.hostR1.wlan[0].queue flowIncomingDataRate:vector ETV
attr interpolationmode linear
attr recordingmode vector
attr source throughput(flowPacketLength(demuxFlow(packetPushStarted)))
attr title "flow specific incoming data rate"
attr unit bps
vector 108 WirelessB2.hostR1.wlan[0].queue flowOutgoingDataRate:vector ETV
attr interpolationmode linear
attr recordingmode vector
attr source throughput(flowPacketLength(demuxFlow(packetPulled)))
attr title "flow specific outgoing data rate"
attr unit bps
vector 109 WirelessB2.hostR1.wlan[0].mac packetDropIncorrectlyReceived:vector(packetBytes) ETV
attr interpolationmode none
attr recordingmode vector(packetBytes)
attr source packetDropReasonIsIncorrectlyReceived(packetDropped)
attr title "packet drop: incorrectly received, packetBytes"
vector 110 WirelessB2.hostR1.wlan[0].mac packetDropNotAddressedToUs:vector(packetBytes) ETV
attr interpolationmode none
attr recordingmode vector(packetBytes)
attr source packetDropReasonIsNotAddressedToUs(packetDropped)
attr title "packet drop: not addressed to us, packetBytes"
vector 111 WirelessB2.hostR1.wlan[0].mac packetDropQueueOverflow:vector(packetBytes) ETV
attr interpolationmode none
attr recordingmode vector(packetBytes)
attr source packetDropReasonIsQueueOverflow(packetDropped)
attr title "packet drop: queue overflow, packetBytes"
vector 112 WirelessB2.hostR1.wlan[0].mac packetDropRetryLimitReached:vector(packetBytes) ETV
attr interpolationmode none
attr recordingmode vector(packetBytes)
attr source packetDropReasonIsRetryLimitReached(packetDropped)
attr title "packet drop: retry limit reached, packetBytes"
vector 113 WirelessB2.hostR1.wlan[0].radio.energyConsumer powerConsumption:vector ETV
attr interpolationmode sample-hold
attr recordingmode vector
attr source powerConsumptionChanged
attr title "Power consumption"
attr unit W
vector 114 WirelessB2.hostR1.wlan[0].radio radioMode:vector ETV
attr enum OFF,SLEEP,RECEIVER,TRANSMITTER,TRANSCEIVER,SWITCHING
attr interpolationmode sample-hold
attr recordingmode vector
attr source radioModeChanged
attr title "Radio mode"
attr type enum
vector 115 WirelessB2.hostR1.wlan[0].radio receptionState:vector ETV
attr enum UNDEFINED,IDLE,BUSY,RECEIVING
attr interpolationmode sample-hold
attr recordingmode vector
attr source receptionStateChanged
attr title "Radio reception state"
attr type enum
vector 116 WirelessB2.hostR1.wlan[0].radio transmissionState:vector ETV
attr enum UNDEFINED,IDLE,TRANSMITTING
attr interpolationmode sample-hold
attr recordingmode vector
attr source transmissionStateChanged
attr title "Radio transmission state"
attr type enum
vector 117 WirelessB2.hostR1.wlan[0] packetDropInterfaceDown:vector(packetBytes) ETV
attr interpolationmode none
attr recordingmode vector(packetBytes)
attr source packetDropReasonIsInterfaceDown(packetDropped)
attr title "packet drops: interface down, packetBytes"
vector 118 WirelessB2.hostR1.wlan[0] packetDropNoCarrier:vector(packetBytes) ETV
attr interpolationmode none
attr recordingmode vector(packetBytes)
attr source packetDropReasonIsNoCarrier(packetDropped)
attr title "packet drops: no carrier, packetBytes"
vector 119 WirelessB2.hostR1.ipv4.ip packetDropAddressResolutionFailed:vector(packetBytes) ETV
attr interpolationmode none
attr recordingmode vector(packetBytes)
attr source packetDropReasonIsAddressResolutionFailed(packetDropped)
attr title "packet drop: address resolution failed, packetBytes"
vector 120 WirelessB2.hostR1.ipv4.ip packetDropHopLimitReached:vector(packetBytes) ETV
attr interpolationmode none
attr recordingmode vector(packetBytes)
attr source packetDropReasonIsHopLimitReached(packetDropped)
attr title "packet drop: hop limit reached, packetBytes"
vector 121 WirelessB2.hostR1.ipv4.ip packetDropForwardingDisabled:vector(packetBytes) ETV
attr interpolationmode none
attr recordingmode vector(packetBytes)
attr source packetDropReasonIsForwardingDisabled(packetDropped)
attr title "packet drop: forwarding disabled, packetBytes"
vector 122 WirelessB2.hostR1.ipv4.ip packetDropLifetimeExpired:vector(packetBytes) ETV
attr interpolationmode none
attr recordingmode vector(packetBytes)
attr source packetDropReasonIsLifetimeExpired(packetDropped)
attr title "packet drop: lifetime expired, packetBytes"
vector 123 WirelessB2.hostR1.ipv4.ip packetDropNoInterfaceFound:vector(packetBytes) ETV
attr interpolationmode none
attr recordingmode vector(packetBytes)
attr source packetDropReasonIsNoInterfaceFound(packetDropped)
attr title "packet drop: no interface found, packetBytes"
vector 124 WirelessB2.hostR1.ipv4.ip packetDropNoRouteFound:vector(packetBytes) ETV
attr interpolationmode none
attr recordingmode vector(packetBytes)
attr source packetDropReasonIsNoRouteFound(packetDropped)
attr title "packet drop: no route found, packetBytes"
vector 125 WirelessB2.hostR1.ipv4.ip packetDropUndefined:vector(packetBytes) ETV
attr interpolationmode none
attr recordingmode vector(packetBytes)
attr source packetDropReasonIsUndefined(packetDropped)
attr title "packet drop: undefined, packetBytes"
vector 126 WirelessB2.hostR1.udp packetSent:vector(packetBytes) ETV
attr interpolationmode none
attr recordingmode vector(packetBytes)
attr source packetSent
attr title "packets sent, packetBytes"
vector 127 WirelessB2.hostR1.udp outgoingDataRate:vector ETV
attr interpolationmode linear
attr recordingmode vector
attr source throughput(packetSent)
attr title "outgoing datarate"
attr unit bps
vector 128 WirelessB2.hostR1.udp packetReceived:vector(packetBytes) ETV
attr interpolationmode none
attr recordingmode vector(packetBytes)
attr source packetReceived
attr title "packets received, packetBytes"
vector 129 WirelessB2.hostR1.udp passedUpPk:vector(count) ETV
attr interpolationmode none
attr recordingmode vector(count)
attr source packetSentToUpper
attr title "packets passed up, count"
vector 130 WirelessB2.hostR1.udp droppedPkWrongPort:vector(count) ETV
attr interpolationmode none
attr recordingmode vector(count)
attr source packetDropReasonIsNoPortFound(packetDropped)
attr title "packets dropped (wrong port), count"
vector 131 WirelessB2.hostR1.udp droppedPkBadChecksum:vector(count) ETV
attr interpolationmode none
attr recordingmode vector(count)
attr source packetDropReasonIsIncorrectlyReceived(packetDropped)
attr title "packets dropped (checksum error), count"
vector 132 WirelessB2.hostR2.energyStorage powerConsumption:vector ETV
attr interpolationmode sample-hold
attr recordingmode vector
attr source powerConsumptionChanged
attr title "Power consumption"
attr unit W
vector 133 WirelessB2.hostR2.energyStorage powerGeneration:vector ETV
attr interpolationmode sample-hold
attr recordingmode vector
attr source powerGenerationChanged
attr title "Power generation"
attr unit W
vector 134 WirelessB2.hostR2.energyStorage residualEnergyCapacity:vector ETV
attr interpolationmode linear
attr recordingmode vector
attr source residualEnergyCapacityChanged
attr title "Residual energy capacity"
attr unit J
vector 135 WirelessB2.hostR2.lo[0].lo rcvdPkFromHl:vector(packetBytes) ETV
attr interpolationmode none
attr recordingmode vector(packetBytes)
attr source packetReceivedFromUpper
attr title "packets received from higher layer, packetBytes"
vector 136 WirelessB2.hostR2.lo[0].lo passedUpPk:vector(packetBytes) ETV
attr interpolationmode none
attr recordingmode vector(packetBytes)
attr source packetSentToUpper
attr title "packets passed to higher layer, packetBytes"
vector 137 WirelessB2.hostR2.lo[0] packetDropInterfaceDown:vector(packetBytes) ETV
attr interpolationmode none
attr recordingmode vector(packetBytes)
attr source packetDropReasonIsInterfaceDown(packetDropped)
attr title "packet drops: interface down, packetBytes"
vector 138 WirelessB2.hostR2.lo[0] packetDropNoCarrier:vector(packetBytes) ETV
attr interpolationmode none
attr recordingmode vector(packetBytes)
attr source packetDropReasonIsNoCarrier(packetDropped)
attr title "packet drops: no carrier, packetBytes"
vector 139 WirelessB2.hostR2.wlan[0].queue queueLength:vector ETV
attr autoWarmupFilter false
attr interpolationmode sample-hold
attr recordingmode vector
attr source "warmup(atomic(constant0(packetPushEnded) + count(packetPushStarted) - count(packetPulled) - count(packetRemoved) - count(packetDropped)))"
attr title "queue length"
attr unit pk
vector 140 WirelessB2.hostR2.wlan[0].queue queueBitLength:vector ETV
attr autoWarmupFilter false
attr interpolationmode sample-hold
attr recordingmode vector
attr source "warmup(atomic(constant0(packetPushEnded) + sum(packetLength(packetPushStarted)) - sum(packetLength(packetPulled)) - sum(packetLength(packetRemoved)) - sum(packetLength(packetDropped))))"
attr title "queue bit length"
attr unit b
vector 141 WirelessB2.hostR2.wlan[0].queue queueingTime:vector ETV
attr interpolationmode none
attr recordingmode vector
attr source queueingTime(packetPulled)
attr title "queueing times"
attr unit s
vector 142 WirelessB2.hostR2.wlan[0].queue incomingPacketLengths:vector ETV
attr interpolationmode none
attr recordingmode vector
attr source packetLength(packetPushStarted)
attr title "incoming packet lengths"
attr unit b
vector 143 WirelessB2.hostR2.wlan[0].queue incomingDataRate:vector ETV
attr interpolationmode linear
attr recordingmode vector
attr source throughput(packetPushStarted)
attr title "incoming datarate"
attr unit bps
vector 144 WirelessB2.hostR2.wlan[0].queue outgoingPacketLengths:vector ETV
attr interpolationmode none
attr recordingmode vector
attr source packetLength(packetPulled)
attr title "outgoing packet lengths"
attr unit b
vector 145 WirelessB2.hostR2.wlan[0].queue outgoingDataRate:vector ETV
attr interpolationmode linear
attr recordingmode vector
attr source throughput(packetPulled)
attr title "outgoing datarate"
attr unit bps
vector 146 WirelessB2.hostR2.wlan[0].queue droppedPacketLengthsQueueOverflow:vector ETV
attr interpolationmode none
attr recordingmode vector
attr source packetLength(packetDropReasonIsQueueOverflow(packetDropped))
attr title "dropped packet lengths: queue overflow"
attr unit b
vector 147 WirelessB2.hostR2.wlan[0].queue flowQueueingTime:vector ETV
attr interpolationmode none
attr recordingmode vector
attr source queueingTime(demuxFlow(packetPulled))
attr title "flow queueing times"
attr unit s
vector 148 WirelessB2.hostR2.wlan[0].queue flowIncomingDataRate:vector ETV
attr interpolationmode linear
attr recordingmode vector
attr source throughput(flowPacketLength(demuxFlow(packetPushStarted)))
attr title "flow specific incoming data rate"
attr unit bps
vector 149 WirelessB2.hostR2.wlan[0].queue flowOutgoingDataRate:vector ETV
attr interpolationmode linear
attr recordingmode vector
attr source throughput(flowPacketLength(demuxFlow(packetPulled)))
attr title "flow specific outgoing data rate"
attr unit bps
vector 150 WirelessB2.hostR2.wlan[0].mac packetDropIncorrectlyReceived:vector(packetBytes) ETV
attr interpolationmode none
attr recordingmode vector(packetBytes)
attr source packetDropReasonIsIncorrectlyReceived(packetDropped)
attr title "packet drop: incorrectly received, packetBytes"
vector 151 WirelessB2.hostR2.wlan[0].mac packetDropNotAddressedToUs:vector(packetBytes) ETV
attr interpolationmode none
attr recordingmode vector(packetBytes)
attr source packetDropReasonIsNotAddressedToUs(packetDropped)
attr title "packet drop: not addressed to us, packetBytes"
vector 152 WirelessB2.hostR2.wlan[0].mac packetDropQueueOverflow:vector(packetBytes) ETV
attr interpolationmode none
attr recordingmode vector(packetBytes)
attr source packetDropReasonIsQueueOverflow(packetDropped)
attr title "packet drop: queue overflow, packetBytes"
vector 153 WirelessB2.hostR2.wlan[0].mac packetDropRetryLimitReached:vector(packetBytes) ETV
attr interpolationmode none
attr recordingmode vector(packetBytes)
attr source packetDropReasonIsRetryLimitReached(packetDropped)
attr title "packet drop: retry limit reached, packetBytes"
vector 154 WirelessB2.hostR2.wlan[0].radio.energyConsumer powerConsumption:vector ETV
attr interpolationmode sample-hold
attr recordingmode vector
attr source powerConsumptionChanged
attr title "Power consumption"
attr unit W
vector 155 WirelessB2.hostR2.wlan[0].radio radioMode:vector ETV
attr enum OFF,SLEEP,RECEIVER,TRANSMITTER,TRANSCEIVER,SWITCHING
attr interpolationmode sample-hold
attr recordingmode vector
attr source radioModeChanged
attr title "Radio mode"
attr type enum
vector 156 WirelessB2.hostR2.wlan[0].radio receptionState:vector ETV
attr enum UNDEFINED,IDLE,BUSY,RECEIVING
attr interpolationmode sample-hold
attr recordingmode vector
attr source receptionStateChanged
attr title "Radio reception state"
attr type enum
vector 157 WirelessB2.hostR2.wlan[0].radio transmissionState:vector ETV
attr enum UNDEFINED,IDLE,TRANSMITTING
attr interpolationmode sample-hold
attr recordingmode vector
attr source transmissionStateChanged
attr title "Radio transmission state"
attr type enum
vector 158 WirelessB2.hostR2.wlan[0] packetDropInterfaceDown:vector(packetBytes) ETV
attr interpolationmode none
attr recordingmode vector(packetBytes)
attr source packetDropReasonIsInterfaceDown(packetDropped)
attr title "packet drops: interface down, packetBytes"
vector 159 WirelessB2.hostR2.wlan[0] packetDropNoCarrier:vector(packetBytes) ETV
attr interpolationmode none
attr recordingmode vector(packetBytes)
attr source packetDropReasonIsNoCarrier(packetDropped)
attr title "packet drops: no carrier, packetBytes"
vector 160 WirelessB2.hostR2.ipv4.ip packetDropAddressResolutionFailed:vector(packetBytes) ETV
attr interpolationmode none
attr recordingmode vector(packetBytes)
attr source packetDropReasonIsAddressResolutionFailed(packetDropped)
attr title "packet drop: address resolution failed, packetBytes"
vector 161 WirelessB2.hostR2.ipv4.ip packetDropHopLimitReached:vector(packetBytes) ETV
attr interpolationmode none
attr recordingmode vector(packetBytes)
attr source packetDropReasonIsHopLimitReached(packetDropped)
attr title "packet drop: hop limit reached, packetBytes"
vector 162 WirelessB2.hostR2.ipv4.ip packetDropForwardingDisabled:vector(packetBytes) ETV
attr interpolationmode none
attr recordingmode vector(packetBytes)
attr source packetDropReasonIsForwardingDisabled(packetDropped)
attr title "packet drop: forwarding disabled, packetBytes"
vector 163 WirelessB2.hostR2.ipv4.ip packetDropLifetimeExpired:vector(packetBytes) ETV
attr interpolationmode none
attr recordingmode vector(packetBytes)
attr source packetDropReasonIsLifetimeExpired(packetDropped)
attr title "packet drop: lifetime expired, packetBytes"
vector 164 WirelessB2.hostR2.ipv4.ip packetDropNoInterfaceFound:vector(packetBytes) ETV
attr interpolationmode none
attr recordingmode vector(packetBytes)
attr source packetDropReasonIsNoInterfaceFound(packetDropped)
attr title "packet drop: no interface found, packetBytes"
vector 165 WirelessB2.hostR2.ipv4.ip packetDropNoRouteFound:vector(packetBytes) ETV
attr interpolationmode none
attr recordingmode vector(packetBytes)
attr source packetDropReasonIsNoRouteFound(packetDropped)
attr title "packet drop: no route found, packetBytes"
vector 166 WirelessB2.hostR2.ipv4.ip packetDropUndefined:vector(packetBytes) ETV
attr interpolationmode none
attr recordingmode vector(packetBytes)
attr source packetDropReasonIsUndefined(packetDropped)
attr title "packet drop: undefined, packetBytes"
vector 167 WirelessB2.hostR2.udp packetSent:vector(packetBytes) ETV
attr interpolationmode none
attr recordingmode vector(packetBytes)
attr source packetSent
attr title "packets sent, packetBytes"
vector 168 WirelessB2.hostR2.udp outgoingDataRate:vector ETV
attr interpolationmode linear
attr recordingmode vector
attr source throughput(packetSent)
attr title "outgoing datarate"
attr unit bps
vector 169 WirelessB2.hostR2.udp packetReceived:vector(packetBytes) ETV
attr interpolationmode none
attr recordingmode vector(packetBytes)
attr source packetReceived
attr title "packets received, packetBytes"
vector 170 WirelessB2.hostR2.udp passedUpPk:vector(count) ETV
attr interpolationmode none
attr recordingmode vector(count)
attr source packetSentToUpper
attr title "packets passed up, count"
vector 171 WirelessB2.hostR2.udp droppedPkWrongPort:vector(count) ETV
attr interpolationmode none
attr recordingmode vector(count)
attr source packetDropReasonIsNoPortFound(packetDropped)
attr title "packets dropped (wrong port), count"
vector 172 WirelessB2.hostR2.udp droppedPkBadChecksum:vector(count) ETV
attr interpolationmode none
attr recordingmode vector(count)
attr source packetDropReasonIsIncorrectlyReceived(packetDropped)
attr title "packets dropped (checksum error), count"
vector 173 WirelessB2.hostR3.energyStorage powerConsumption:vector ETV
attr interpolationmode sample-hold
attr recordingmode vector
attr source powerConsumptionChanged
attr title "Power consumption"
attr unit W
vector 174 WirelessB2.hostR3.energyStorage powerGeneration:vector ETV
attr interpolationmode sample-hold
attr recordingmode vector
attr source powerGenerationChanged
attr title "Power generation"
attr unit W
vector 175 WirelessB2.hostR3.energyStorage residualEnergyCapacity:vector ETV
attr interpolationmode linear
attr recordingmode vector
attr source residualEnergyCapacityChanged
attr title "Residual energy capacity"
attr unit J
vector 176 WirelessB2.hostR3.lo[0].lo rcvdPkFromHl:vector(packetBytes) ETV
attr interpolationmode none
attr recordingmode vector(packetBytes)
attr source packetReceivedFromUpper
attr title "packets received from higher layer, packetBytes"
vector 177 WirelessB2.hostR3.lo[0].lo passedUpPk:vector(packetBytes) ETV
attr interpolationmode none
attr recordingmode vector(packetBytes)
attr source packetSentToUpper
attr title "packets passed to higher layer, packetBytes"
vector 178 WirelessB2.hostR3.lo[0] packetDropInterfaceDown:vector(packetBytes) ETV
attr interpolationmode none
attr recordingmode vector(packetBytes)
attr source packetDropReasonIsInterfaceDown(packetDropped)
attr title "packet drops: interface down, packetBytes"
vector 179 WirelessB2.hostR3.lo[0] packetDropNoCarrier:vector(packetBytes) ETV
attr interpolationmode none
attr recordingmode vector(packetBytes)
attr source packetDropReasonIsNoCarrier(packetDropped)
attr title "packet drops: no carrier, packetBytes"
vector 180 WirelessB2.hostR3.wlan[0].queue queueLength:vector ETV
attr autoWarmupFilter false
attr interpolationmode sample-hold
attr recordingmode vector
attr source "warmup(atomic(constant0(packetPushEnded) + count(packetPushStarted) - count(packetPulled) - count(packetRemoved) - count(packetDropped)))"
attr title "queue length"
attr unit pk
vector 181 WirelessB2.hostR3.wlan[0].queue queueBitLength:vector ETV
attr autoWarmupFilter false
attr interpolationmode sample-hold
attr recordingmode vector
attr source "warmup(atomic(constant0(packetPushEnded) + sum(packetLength(packetPushStarted)) - sum(packetLength(packetPulled)) - sum(packetLength(packetRemoved)) - sum(packetLength(packetDropped))))"
attr title "queue bit length"
attr unit b
vector 182 WirelessB2.hostR3.wlan[0].queue queueingTime:vector ETV
attr interpolationmode none
attr recordingmode vector
attr source queueingTime(packetPulled)
attr title "queueing times"
attr unit s
vector 183 WirelessB2.hostR3.wlan[0].queue incomingPacketLengths:vector ETV
attr interpolationmode none
attr recordingmode vector
attr source packetLength(packetPushStarted)
attr title "incoming packet lengths"
attr unit b
vector 184 WirelessB2.hostR3.wlan[0].queue incomingDataRate:vector ETV
attr interpolationmode linear
attr recordingmode vector
attr source throughput(packetPushStarted)
attr title "incoming datarate"
attr unit bps
vector 185 WirelessB2.hostR3.wlan[0].queue outgoingPacketLengths:vector ETV
attr interpolationmode none
attr recordingmode vector
attr source packetLength(packetPulled)
attr title "outgoing packet lengths"
attr unit b
vector 186 WirelessB2.hostR3.wlan[0].queue outgoingDataRate:vector ETV
attr interpolationmode linear
attr recordingmode vector
attr source throughput(packetPulled)
attr title "outgoing datarate"
attr unit bps
vector 187 WirelessB2.hostR3.wlan[0].queue droppedPacketLengthsQueueOverflow:vector ETV
attr interpolationmode none
attr recordingmode vector
attr source packetLength(packetDropReasonIsQueueOverflow(packetDropped))
attr title "dropped packet lengths: queue overflow"
attr unit b
vector 188 WirelessB2.hostR3.wlan[0].queue flowQueueingTime:vector ETV
attr interpolationmode none
attr recordingmode vector
attr source queueingTime(demuxFlow(packetPulled))
attr title "flow queueing times"
attr unit s
vector 189 WirelessB2.hostR3.wlan[0].queue flowIncomingDataRate:vector ETV
attr interpolationmode linear
attr recordingmode vector
attr source throughput(flowPacketLength(demuxFlow(packetPushStarted)))
attr title "flow specific incoming data rate"
attr unit bps
vector 190 WirelessB2.hostR3.wlan[0].queue flowOutgoingDataRate:vector ETV
attr interpolationmode linear
attr recordingmode vector
attr source throughput(flowPacketLength(demuxFlow(packetPulled)))
attr title "flow specific outgoing data rate"
attr unit bps
vector 191 WirelessB2.hostR3.wlan[0].mac packetDropIncorrectlyReceived:vector(packetBytes) ETV
attr interpolationmode none
attr recordingmode vector(packetBytes)
attr source packetDropReasonIsIncorrectlyReceived(packetDropped)
attr title "packet drop: incorrectly received, packetBytes"
vector 192 WirelessB2.hostR3.wlan[0].mac packetDropNotAddressedToUs:vector(packetBytes) ETV
attr interpolationmode none
attr recordingmode vector(packetBytes)
attr source packetDropReasonIsNotAddressedToUs(packetDropped)
attr title "packet drop: not addressed to us, packetBytes"
vector 193 WirelessB2.hostR3.wlan[0].mac packetDropQueueOverflow:vector(packetBytes) ETV
attr interpolationmode none
attr recordingmode vector(packetBytes)
attr source packetDropReasonIsQueueOverflow(packetDropped)
attr title "packet drop: queue overflow, packetBytes"
vector 194 WirelessB2.hostR3.wlan[0].mac packetDropRetryLimitReached:vector(packetBytes) ETV
attr interpolationmode none
attr recordingmode vector(packetBytes)
attr source packetDropReasonIsRetryLimitReached(packetDropped)
attr title "packet drop: retry limit reached, packetBytes"
vector 195 WirelessB2.hostR3.wlan[0].radio.energyConsumer powerConsumption:vector ETV
attr interpolationmode sample-hold
attr recordingmode vector
attr source powerConsumptionChanged
attr title "Power consumption"
attr unit W
vector 196 WirelessB2.hostR3.wlan[0].radio radioMode:vector ETV
attr enum OFF,SLEEP,RECEIVER,TRANSMITTER,TRANSCEIVER,SWITCHING
attr interpolationmode sample-hold
attr recordingmode vector
attr source radioModeChanged
attr title "Radio mode"
attr type enum
vector 197 WirelessB2.hostR3.wlan[0].radio receptionState:vector ETV
attr enum UNDEFINED,IDLE,BUSY,RECEIVING
attr interpolationmode sample-hold
attr recordingmode vector
attr source receptionStateChanged
attr title "Radio reception state"
attr type enum
vector 198 WirelessB2.hostR3.wlan[0].radio transmissionState:vector ETV
attr enum UNDEFINED,IDLE,TRANSMITTING
attr interpolationmode sample-hold
attr recordingmode vector
attr source transmissionStateChanged
attr title "Radio transmission state"
attr type enum
vector 199 WirelessB2.hostR3.wlan[0] packetDropInterfaceDown:vector(packetBytes) ETV
attr interpolationmode none
attr recordingmode vector(packetBytes)
attr source packetDropReasonIsInterfaceDown(packetDropped)
attr title "packet drops: interface down, packetBytes"
vector 200 WirelessB2.hostR3.wlan[0] packetDropNoCarrier:vector(packetBytes) ETV
attr interpolationmode none
attr recordingmode vector(packetBytes)
attr source packetDropReasonIsNoCarrier(packetDropped)
attr title "packet drops: no carrier, packetBytes"
vector 201 WirelessB2.hostR3.ipv4.ip packetDropAddressResolutionFailed:vector(packetBytes) ETV
attr interpolationmode none
attr recordingmode vector(packetBytes)
attr source packetDropReasonIsAddressResolutionFailed(packetDropped)
attr title "packet drop: address resolution failed, packetBytes"
vector 202 WirelessB2.hostR3.ipv4.ip packetDropHopLimitReached:vector(packetBytes) ETV
attr interpolationmode none
attr recordingmode vector(packetBytes)
attr source packetDropReasonIsHopLimitReached(packetDropped)
attr title "packet drop: hop limit reached, packetBytes"
vector 203 WirelessB2.hostR3.ipv4.ip packetDropForwardingDisabled:vector(packetBytes) ETV
attr interpolationmode none
attr recordingmode vector(packetBytes)
attr source packetDropReasonIsForwardingDisabled(packetDropped)
attr title "packet drop: forwarding disabled, packetBytes"
vector 204 WirelessB2.hostR3.ipv4.ip packetDropLifetimeExpired:vector(packetBytes) ETV
attr interpolationmode none
attr recordingmode vector(packetBytes)
attr source packetDropReasonIsLifetimeExpired(packetDropped)
attr title "packet drop: lifetime expired, packetBytes"
vector 205 WirelessB2.hostR3.ipv4.ip packetDropNoInterfaceFound:vector(packetBytes) ETV
attr interpolationmode none
attr recordingmode vector(packetBytes)
attr source packetDropReasonIsNoInterfaceFound(packetDropped)
attr title "packet drop: no interface found, packetBytes"
vector 206 WirelessB2.hostR3.ipv4.ip packetDropNoRouteFound:vector(packetBytes) ETV
attr interpolationmode none
attr recordingmode vector(packetBytes)
attr source packetDropReasonIsNoRouteFound(packetDropped)
attr title "packet drop: no route found, packetBytes"
vector 207 WirelessB2.hostR3.ipv4.ip packetDropUndefined:vector(packetBytes) ETV
attr interpolationmode none
attr recordingmode vector(packetBytes)
attr source packetDropReasonIsUndefined(packetDropped)
attr title "packet drop: undefined, packetBytes"
vector 208 WirelessB2.hostR3.udp packetSent:vector(packetBytes) ETV
attr interpolationmode none
attr recordingmode vector(packetBytes)
attr source packetSent
attr title "packets sent, packetBytes"
vector 209 WirelessB2.hostR3.udp outgoingDataRate:vector ETV
attr interpolationmode linear
attr recordingmode vector
attr source throughput(packetSent)
attr title "outgoing datarate"
attr unit bps
vector 210 WirelessB2.hostR3.udp packetReceived:vector(packetBytes) ETV
attr interpolationmode none
attr recordingmode vector(packetBytes)
attr source packetReceived
attr title "packets received, packetBytes"
vector 211 WirelessB2.hostR3.udp passedUpPk:vector(count) ETV
attr interpolationmode none
attr recordingmode vector(count)
attr source packetSentToUpper
attr title "packets passed up, count"
vector 212 WirelessB2.hostR3.udp droppedPkWrongPort:vector(count) ETV
attr interpolationmode none
attr recordingmode vector(count)
attr source packetDropReasonIsNoPortFound(packetDropped)
attr title "packets dropped (wrong port), count"
vector 213 WirelessB2.hostR3.udp droppedPkBadChecksum:vector(count) ETV
attr interpolationmode none
attr recordingmode vector(count)
attr source packetDropReasonIsIncorrectlyReceived(packetDropped)
attr title "packets dropped (checksum error), count"
0	0	0	0
0	0	0	0
0	0	0	0
0	0	0	0
0	0	0	0.002
0	23	0.024302458152	0
0	23	0.024302458152	0
0	23	0.024302458152	0.002
0	24	0.024302458152	0
0	24	0.024302458152	0.1
0	29	0.025030458152	0.002
0	29	0.025030458152	0
0	29	0.025030458152	0.002
0	29	0.025030458152	0.002
0	29	0.025030458152	0.002
0	49	0.029320298939	0
0	49	0.029320298939	0.01
0	58	0.030048298939	0.002
0	169	0.344570410308	0
0	169	0.344570410308	0
0	169	0.344570410308	0.002
0	169	0.344570410308	0.002
0	170	0.344570410308	0
0	170	0.344570410308	0.1
0	175	0.345298410308	0.002
0	175	0.345298410308	0
0	175	0.345298410308	0.002
0	175	0.345298410308	0.002
0	175	0.345298410308	0.002
0	198	0.348957756368	0
0	198	0.348957756368	0.01
0	207	0.349685756368	0.002
0	224	0.353309631998	0.005
0	224	0.353309631998	0.005
0	240	0.354037631998	0.002
0	247	0.354368502499	0.005
0	256	0.355064502499	0.002
0	262	0.355074699341	0.005
0	270	0.355314699341	0.002
0	281	0.357445460106	0.005
0	291	0.358141460106	0.002
0	295	0.35815166068	0
0	295	0.35815166068	0.01
0	301	0.35839166068	0.002
0	317	0.362365091206	0.01
0	323	0.363061091206	0.002
0	364	0.363071091206	0
0	364	0.363071091206	0
0	364	0.363071091206	0.002
0	364	0.363071091206	0.002
0	365	0.363071091206	0
0	365	0.363071091206	0.1
0	370	0.363311091206	0.002
0	370	0.363311091206	0
0	370	0.363311091206	0.002
0	370	0.363311091206	0.002
0	370	0.363311091206	0.002
0	377	0.363601091206	0
0	377	0.363601091206	0
0	377	0.363601091206	0.002
0	378	0.363601091206	0
0	378	0.363601091206	0.1
0	396	0.372137091206	0.002
0	396	0.372137091206	0
0	396	0.372137091206	0.002
0	396	0.372137091206	0.002
0	396	0.372137091206	0.002
0	407	0.372148279605	0
0	407	0.372148279605	0.01
0	413	0.372388279605	0.002
0	422	0.37251827959	0.01
0	432	0.38105427959	0.002
0	441	0.381064965793	0.005
0	441	0.381064965793	0.005
0	448	0.381304965793	0.002
0	451	0.381414965793	0
0	451	0.381414965793	0
0	451	0.381414965793	0.002
0	452	0.381414965793	0
0	452	0.381414965793	0.1
0	471	0.389950965793	0.002
0	471	0.389950965793	0
0	471	0.389950965793	0.002
0	471	0.389950965793	0.002
0	471	0.389950965793	0.002
0	482	0.38996215277	0
0	482	0.38996215277	0.01
0	488	0.39020215277	0.002
0	500	0.390272839338	0.005
0	500	0.390272839338	0.005
0	512	0.398808839338	0.002
0	518	0.398819711173	0.005
0	524	0.399059711173	0.002
0	527	0.399249711173	0
0	527	0.399249711173	0
0	527	0.399249711173	0.002
0	528	0.399249711173	0
0	528	0.399249711173	0.1
0	542	0.407785711173	0.002
0	542	0.407785711173	0
0	542	0.407785711173	0.002
0	542	0.407785711173	0.002
0	542	0.407785711173	0.002
0	553	0.407796896726	0
0	553	0.407796896726	0.01
0	559	0.408036896726	0.002
0	568	0.408326896705	0.01
0	582	0.416862896705	0.002
0	591	0.41687358305	0.005
0	591	0.41687358305	0.005
0	598	0.41711358305	0.002
0	602	0.41734358305	0
0	602	0.41734358305	0
0	602	0.41734358305	0.002
0	603	0.41734358305	0
0	603	0.41734358305	0.1
0	614	0.42587958305	0.002
0	614	0.42587958305	0
0	614	0.42587958305	0.002
0	614	0.42587958305	0.002
0	614	0.42587958305	0.002
0	625	0.425890767159	0
0	625	0.425890767159	0.01
0	631	0.426130767159	0.002
0	641	0.426300767143	0.01
0	655	0.434836767143	0.002
0	664	0.434847453558	0.005
0	664	0.434847453558	0.005
0	671	0.435087453558	0.002
0	678	0.43523765384	0
0	678	0.43523765384	0.01
0	692	0.44377365384	0.002
0	701	0.443784340291	0.005
0	701	0.443784340291	0.005
0	708	0.444024340291	0.002
0	716	0.444134340278	0.005
0	728	0.452670340278	0.002
0	734	0.452681214064	0.005
0	740	0.452921214064	0.002
0	748	0.452971407406	0.005
0	760	0.461507407406	0.002
0	766	0.461518281512	0.005
0	772	0.461758281512	0.002
0	775	0.461988281512	0
0	775	0.461988281512	0
0	775	0.461988281512	0.002
0	776	0.461988281512	0
0	776	0.461988281512	0.1
0	783	0.470524281512	0.002
0	783	0.470524281512	0
0	783	0.470524281512	0.002
0	783	0.470524281512	0.002
0	783	0.470524281512	0.002
0	794	0.470535462059	0
0	794	0.470535462059	0.01
0	800	0.470775462059	0.002
0	810	0.470925462043	0.01
0	824	0.479461462043	0.002
0	833	0.479472148635	0.005
0	833	0.479472148635	0.005
0	840	0.479712148635	0.002
0	848	0.480102148613	0.005
0	864	0.488638148613	0.002
0	870	0.488649023705	0.005
0	876	0.488889023705	0.002
0	884	0.488979215768	0.005
0	900	0.497515215768	0.002
0	906	0.497526091183	0.005
0	912	0.497766091183	0.002
0	914	0.497976091183	0
0	914	0.497976091183	0
0	914	0.497976091183	0.002
0	915	0.497976091183	0
0	915	0.497976091183	0.1
0	925	0.506512091183	0.002
0	925	0.506512091183	0
0	925	0.506512091183	0.002
0	925	0.506512091183	0.002
0	925	0.506512091183	0.002
0	936	0.506523268858	0
0	936	0.506523268858	0.01
0	942	0.506763268858	0.002
0	948	0.506853268858	0
0	948	0.506853268858	0
0	948	0.506853268858	0.002
0	948	0.506853268858	0.002
0	949	0.506853268858	0
0	949	0.506853268858	0.1
0	956	0.515389268858	0.002
0	956	0.515389268858	0
0	956	0.515389268858	0.002
0	956	0.515389268858	0.002
0	956	0.515389268858	0.002
0	967	0.515400445825	0
0	967	0.515400445825	0.01
0	973	0.515640445825	0.002
0	982	0.515710445812	0.01
0	992	0.524246445812	0.002
0	1001	0.524257132582	0.005
0	1001	0.524257132582	0.005
0	1008	0.524497132582	0.002
0	1012	0.524747132582	0
0	1012	0.524747132582	0
0	1012	0.524747132582	0.002
0	1013	0.524747132582	0
0	1013	0.524747132582	0.1
0	1020	0.533283132582	0.002
0	1020	0.533283132582	0
0	1020	0.533283132582	0.002
0	1020	0.533283132582	0.002
0	1020	0.533283132582	0.002
0	1031	0.533294308121	0
0	1031	0.533294308121	0.01
0	1037	0.533534308121	0.002
0	1049	0.533644995255	0.005
0	1049	0.533644995255	0.005
0	1065	0.542180995255	0.002
0	1071	0.542191872299	0.005
0	1077	0.542431872299	0.002
0	1083	0.542542247228	0
0	1083	0.542542247228	0.01
0	1093	0.551078247228	0.002
0	1102	0.551088934104	0.005
0	1102	0.551088934104	0.005
0	1109	0.551328934104	0.002
0	1116	0.551379133929	0
0	1116	0.551379133929	0.01
0	1130	0.559915133929	0.002
0	1139	0.559925820841	0.005
0	1139	0.559925820841	0.005
0	1146	0.560165820841	0.002
0	1149	0.560235820841	0
0	1149	0.560235820841	0
0	1149	0.560235820841	0.002
0	1150	0.560235820841	0
0	1150	0.560235820841	0.1
0	1169	0.568771820841	0.002
0	1169	0.568771820841	0
0	1169	0.568771820841	0.002
0	1169	0.568771820841	0.002
0	1169	0.568771820841	0.002
0	1180	0.568782993548	0
0	1180	0.568782993548	0.01
0	1190	0.569022993548	0.002
0	1197	0.569132993548	0
0	1197	0.569132993548	0
0	1197	0.569132993548	0.002
0	1197	0.569132993548	0.002
0	1198	0.569132993548	0
0	1198	0.569132993548	0.1
0	1213	0.577668993548	0.002
0	1213	0.577668993548	0
0	1213	0.577668993548	0.002
0	1213	0.577668993548	0.002
0	1213	0.577668993548	0.002
0	1224	0.577680165545	0
0	1224	0.577680165545	0.01
0	1230	0.577920165545	0.002
0	1237	0.578250165545	0
0	1237	0.578250165545	0
0	1237	0.578250165545	0.002
0	1237	0.578250165545	0.002
0	1238	0.578250165545	0
0	1238	0.578250165545	0.1
0	1245	0.586786165545	0.002
0	1245	0.586786165545	0
0	1245	0.586786165545	0.002
0	1245	0.586786165545	0.002
0	1245	0.586786165545	0.002
0	1256	0.586797336814	0
0	1256	0.586797336814	0.01
0	1261	0.587037336814	0.002
0	1268	0.587147336814	0
0	1268	0.587147336814	0
0	1268	0.587147336814	0.002
0	1268	0.587147336814	0.002
0	1269	0.587147336814	0
0	1269	0.587147336814	0.1
0	1284	0.595683336814	0.002
0	1284	0.595683336814	0
0	1284	0.595683336814	0.002
0	1284	0.595683336814	0.002
0	1284	0.595683336814	0.002
0	1295	0.595694507373	0
0	1295	0.595694507373	0.01
0	1300	0.595934507373	0.002
0	1312	0.596184507353	0.01
0	1331	0.604720507353	0.005
0	1339	0.604721194751	0.002
0	1339	0.604721194751	0.002
0	1341	0.604871194751	0
0	1341	0.604871194751	0
0	1341	0.604871194751	0.002
0	1342	0.604871194751	0
0	1342	0.604871194751	0.1
0	1351	0.613407194751	0.002
0	1351	0.613407194751	0
0	1351	0.613407194751	0.002
0	1351	0.613407194751	0.002
0	1351	0.613407194751	0.002
0	1362	0.613418363896	0
0	1362	0.613418363896	0.01
0	1367	0.613658363896	0.002
0	1377	0.613728363883	0.01
2	23	0.024302458152	-4.8604916304e-05
2	29	0.025030458152	-0.000121404916304
2	49	0.029320298939	-0.000129984597878
2	58	0.030048298939	-0.000137264597878
2	169	0.344570410308	-0.000766308820616
2	175	0.345298410308	-0.000839108820616
2	198	0.348957756368	-0.000846427512736
2	207	0.349685756368	-0.000853707512736
2	224	0.353309631998	-0.000860955263996
2	240	0.354037631998	-0.000864595263996
2	247	0.354368502499	-0.000865257004998
2	256	0.355064502499	-0.000868737004998
2	262	0.355074699341	-0.000868757398682
2	270	0.355314699341	-0.000869957398682
2	281	0.357445460106	-0.000874218920212
2	291	0.358141460106	-0.000877698920212
2	295	0.35815166068	-0.00087771932136
2	301	0.35839166068	-0.00088011932136
2	317	0.362365091206	-0.000888066182412
2	323	0.363061091206	-0.000895026182412
2	364	0.363071091206	-0.000895046182412
2	370	0.363311091206	-0.000919046182412
2	377	0.363601091206	-0.000919626182412
2	396	0.372137091206	-0.001773226182412
2	407	0.372148279605	-0.00177324855921
2	413	0.372388279605	-0.00177564855921
2	422	0.37251827959	-0.00177590855918
2	432	0.38105427959	-0.00186126855918
2	441	0.381064965793	-0.001861289931586
2	448	0.381304965793	-0.001862489931586
2	451	0.381414965793	-0.001862709931586
2	471	0.389950965793	-0.002716309931586
2	482	0.38996215277	-0.00271633230554
2	488	0.39020215277	-0.00271873230554
2	500	0.390272839338	-0.002718873678676
2	512	0.398808839338	-0.002761553678676
2	518	0.398819711173	-0.002761575422346
2	524	0.399059711173	-0.002762775422346
2	527	0.399249711173	-0.002763155422346
2	542	0.407785711173	-0.003616755422346
2	553	0.407796896726	-0.003616777793452
2	559	0.408036896726	-0.003619177793452
2	568	0.408326896705	-0.00361975779341
2	582	0.416862896705	-0.00370511779341
2	591	0.41687358305	-0.0037051391661
2	598	0.41711358305	-0.0037063391661
2	602	0.41734358305	-0.0037067991661
2	614	0.42587958305	-0.0045603991661
2	625	0.425890767159	-0.004560421534318
2	631	0.426130767159	-0.004562821534318
2	641	0.426300767143	-0.004563161534286
2	655	0.434836767143	-0.004648521534286
2	664	0.434847453558	-0.004648542907116
2	671	0.435087453558	-0.004649742907116
2	678	0.43523765384	-0.00465004330768
2	692	0.44377365384	-0.00473540330768
2	701	0.443784340291	-0.004735424680582
2	708	0.444024340291	-0.004736624680582
2	716	0.444134340278	-0.004736844680556
2	728	0.452670340278	-0.004779524680556
2	734	0.452681214064	-0.004779546428128
2	740	0.452921214064	-0.004780746428128
2	748	0.452971407406	-0.004780846814812
2	760	0.461507407406	-0.004823526814812
2	766	0.461518281512	-0.004823548563024
2	772	0.461758281512	-0.004824748563024
2	775	0.461988281512	-0.004825208563024
2	783	0.470524281512	-0.005678808563024
2	794	0.470535462059	-0.005678830924118
2	800	0.470775462059	-0.005681230924118
2	810	0.470925462043	-0.005681530924086
2	824	0.479461462043	-0.005766890924086
2	833	0.479472148635	-0.00576691229727
2	840	0.479712148635	-0.00576811229727
2	848	0.480102148613	-0.005768892297226
2	864	0.488638148613	-0.005811572297226
2	870	0.488649023705	-0.00581159404741
2	876	0.488889023705	-0.00581279404741
2	884	0.488979215768	-0.005812974431536
2	900	0.497515215768	-0.005855654431536
2	906	0.497526091183	-0.005855676182366
2	912	0.497766091183	-0.005856876182366
2	914	0.497976091183	-0.005857296182366
2	925	0.506512091183	-0.006710896182366
2	936	0.506523268858	-0.006710918537716
2	942	0.506763268858	-0.006713318537716
2	948	0.506853268858	-0.006713498537716
2	956	0.515389268858	-0.007567098537716
2	967	0.515400445825	-0.00756712089165
2	973	0.515640445825	-0.00756952089165
2	982	0.515710445812	-0.007569660891624
2	992	0.524246445812	-0.007655020891624
2	1001	0.524257132582	-0.007655042265164
2	1008	0.524497132582	-0.007656242265164
2	1012	0.524747132582	-0.007656742265164
2	1020	0.533283132582	-0.008510342265164
2	1031	0.533294308121	-0.008510364616242
2	1037	0.533534308121	-0.008512764616242
2	1049	0.533644995255	-0.00851298599051
2	1065	0.542180995255	-0.00855566599051
2	1071	0.542191872299	-0.008555687744598
2	1077	0.542431872299	-0.008556887744598
2	1083	0.542542247228	-0.008557108494456
2	1093	0.551078247228	-0.008642468494456
2	1102	0.551088934104	-0.008642489868208
2	1109	0.551328934104	-0.008643689868208
2	1116	0.551379133929	-0.008643790267858
2	1130	0.559915133929	-0.008729150267858
2	1139	0.559925820841	-0.008729171641682
2	1146	0.560165820841	-0.008730371641682
2	1149	0.560235820841	-0.008730511641682
2	1169	0.568771820841	-0.009584111641682
2	1180	0.568782993548	-0.009584133987096
2	1190	0.569022993548	-0.009586533987096
2	1197	0.569132993548	-0.009586753987096
2	1213	0.577668993548	-0.010440353987096
2	1224	0.577680165545	-0.01044037633109
2	1230	0.577920165545	-0.01044277633109
2	1237	0.578250165545	-0.01044343633109
2	1245	0.586786165545	-0.01129703633109
2	1256	0.586797336814	-0.011297058673628
2	1261	0.587037336814	-0.011299458673628
2	1268	0.587147336814	-0.011299678673628
2	1284	0.595683336814	-0.012153278673628
2	1295	0.595694507373	-0.012153301014746
2	1300	0.595934507373	-0.012155701014746
2	1312	0.596184507353	-0.012156201014706
2	1331	0.604720507353	-0.012241561014706
2	1339	0.604721194751	-0.012241564451696
2	1341	0.604871194751	-0.012241864451696
2	1351	0.613407194751	-0.013095464451696
2	1362	0.613418363896	-0.013095486789986
2	1367	0.613658363896	-0.013097886789986
2	1377	0.613728363883	-0.01309802678996
7	0	0	0
7	0	0	0
7	0	0	0
7	0	0	0
7	0	0	0
7	21	0.024232458152	0
7	167	0.344500410308	0
7	328	0.363061091206	1
7	329	0.363061091206	2
7	330	0.363061091206	3
7	331	0.363061091206	4
7	332	0.363061091206	5
7	333	0.363061091206	6
7	334	0.363061091206	7
7	335	0.363061091206	8
7	336	0.363061091206	9
7	337	0.363061091206	10
7	338	0.363061091206	10
7	339	0.363061091206	10
7	340	0.363061091206	10
7	341	0.363061091206	10
7	342	0.363061091206	10
7	343	0.363061091206	10
7	344	0.363061091206	10
7	345	0.363061091206	10
7	346	0.363061091206	10
7	347	0.363061091206	10
7	348	0.363061091206	10
7	349	0.363061091206	10
7	350	0.363061091206	10
7	351	0.363061091206	10
7	352	0.363061091206	10
7	353	0.363061091206	10
7	354	0.363061091206	10
7	355	0.363061091206	10
7	356	0.363061091206	10
7	357	0.363061091206	10
7	358	0.363061091206	10
7	359	0.363061091206	10
7	360	0.363061091206	10
7	361	0.363061091206	10
7	364	0.363071091206	9
7	391	0.370962968487	10
7	395	0.371433166364	10
7	414	0.372388279605	9
7	462	0.383503618426	10
7	466	0.386315236651	10
7	470	0.388426199196	10
7	489	0.39020215277	9
7	541	0.401131111777	10
7	560	0.408036896726	9
7	574	0.408666410749	10
7	613	0.420388779638	10
7	632	0.426130767159	9
7	649	0.433866799256	10
7	684	0.435651346487	10
7	801	0.470775462059	9
7	816	0.471497625189	10
7	854	0.483198848399	10
7	890	0.496636620788	10
7	943	0.506763268858	9
7	974	0.515640445825	8
7	1038	0.533534308121	7
7	1055	0.541624998303	8
7	1124	0.557755941569	9
7	1160	0.561744864461	10
7	1164	0.563281545645	10
7	1168	0.567495658718	10
7	1186	0.569012322355	10
7	1191	0.569022993548	9
7	1208	0.573604733741	10
7	1212	0.574400302559	10
7	1231	0.577920165545	9
7	1262	0.587037336814	8
7	1279	0.588550576884	9
7	1283	0.592251554965	10
7	1301	0.595934507373	9
7	1327	0.60114066237	10
7	1368	0.613658363896	9
8	0	0	0
8	0	0	0
8	0	0	0
8	0	0	0
8	0	0	0
8	21	0.024232458152	0
8	167	0.344500410308	0
8	328	0.363061091206	8224
8	329	0.363061091206	16448
8	330	0.363061091206	24672
8	331	0.363061091206	32896
8	332	0.363061091206	41120
8	333	0.363061091206	49344
8	334	0.363061091206	57568
8	335	0.363061091206	65792
8	336	0.363061091206	74016
8	337	0.363061091206	82240
8	338	0.363061091206	82240
8	339	0.363061091206	82240
8	340	0.363061091206	82240
8	341	0.363061091206	82240
8	342	0.363061091206	82240
8	343	0.363061091206	82240
8	344	0.363061091206	82240
8	345	0.363061091206	82240
8	346	0.363061091206	82240
8	347	0.363061091206	82240
8	348	0.363061091206	82240
8	349	0.363061091206	82240
8	350	0.363061091206	82240
8	351	0.363061091206	82240
8	352	0.363061091206	82240
8	353	0.363061091206	82240
8	354	0.363061091206	82240
8	355	0.363061091206	82240
8	356	0.363061091206	82240
8	357	0.363061091206	82240
8	358	0.363061091206	82240
8	359	0.363061091206	82240
8	360	0.363061091206	82240
8	361	0.363061091206	82240
8	364	0.363071091206	74016
8	391	0.370962968487	82240
8	395	0.371433166364	82240
8	414	0.372388279605	74016
8	462	0.383503618426	82240
8	466	0.386315236651	82240
8	470	0.388426199196	82240
8	489	0.39020215277	74016
8	541	0.401131111777	82240
8	560	0.408036896726	74016
8	574	0.408666410749	82240
8	613	0.420388779638	82240
8	632	0.426130767159	74016
8	649	0.433866799256	82240
8	684	0.435651346487	82240
8	801	0.470775462059	74016
8	816	0.471497625189	82240
8	854	0.483198848399	82240
8	890	0.496636620788	82240
8	943	0.506763268858	74016
8	974	0.515640445825	65792
8	1038	0.533534308121	57568
8	1055	0.541624998303	65792
8	1124	0.557755941569	74016
8	1160	0.561744864461	82240
8	1164	0.563281545645	82240
8	1168	0.567495658718	82240
8	1186	0.569012322355	82240
8	1191	0.569022993548	74016
8	1208	0.573604733741	82240
8	1212	0.574400302559	82240
8	1231	0.577920165545	74016
8	1262	0.587037336814	65792
8	1279	0.588550576884	74016
8	1283	0.592251554965	82240
8	1301	0.595934507373	74016
8	1327	0.60114066237	82240
8	1368	0.613658363896	74016
9	21	0.024232458152	0
9	167	0.344500410308	0
9	364	0.363071091206	1e-05
9	414	0.372388279605	0.009327188399
9	489	0.39020215277	0.027141061564
9	560	0.408036896726	0.04497580552
9	632	0.426130767159	0.063069675953
9	801	0.470775462059	0.107714370853
9	943	0.506763268858	0.143702177652
9	974	0.515640445825	0.152579354619
9	1038	0.533534308121	0.170473216915
9	1191	0.569022993548	0.205961902342
9	1231	0.577920165545	0.206957197058
9	1262	0.587037336814	0.203533718388
9	1301	0.595934507373	0.194803395596
9	1368	0.613658363896	0.204991953147
10	21	0.024232458152	416
10	167	0.344500410308	416
10	328	0.363061091206	8224
10	329	0.363061091206	8224
10	330	0.363061091206	8224
10	331	0.363061091206	8224
10	332	0.363061091206	8224
10	333	0.363061091206	8224
10	334	0.363061091206	8224
10	335	0.363061091206	8224
10	336	0.363061091206	8224
10	337	0.363061091206	8224
10	338	0.363061091206	8224
10	339	0.363061091206	8224
10	340	0.363061091206	8224
10	341	0.363061091206	8224
10	342	0.363061091206	8224
10	343	0.363061091206	8224
10	344	0.363061091206	8224
10	345	0.363061091206	8224
10	346	0.363061091206	8224
10	347	0.363061091206	8224
10	348	0.363061091206	8224
10	349	0.363061091206	8224
10	350	0.363061091206	8224
10	351	0.363061091206	8224
10	352	0.363061091206	8224
10	353	0.363061091206	8224
10	354	0.363061091206	8224
10	355	0.363061091206	8224
10	356	0.363061091206	8224
10	357	0.363061091206	8224
10	358	0.363061091206	8224
10	359	0.363061091206	8224
10	360	0.363061091206	8224
10	361	0.363061091206	8224
10	391	0.370962968487	8224
10	395	0.371433166364	8224
10	462	0.383503618426	8224
10	466	0.386315236651	8224
10	470	0.388426199196	8224
10	541	0.401131111777	8224
10	574	0.408666410749	8224
10	613	0.420388779638	8224
10	649	0.433866799256	8224
10	684	0.435651346487	8224
10	816	0.471497625189	8224
10	854	0.483198848399	8224
10	890	0.496636620788	8224
10	1055	0.541624998303	8224
10	1124	0.557755941569	8224
10	1160	0.561744864461	8224
10	1164	0.563281545645	8224
10	1168	0.567495658718	8224
10	1186	0.569012322355	8224
10	1208	0.573604733741	8224
10	1212	0.574400302559	8224
10	1279	0.588550576884	8224
10	1283	0.592251554965	8224
10	1327	0.60114066237	8224
11	167	0.1	4160
11	167	0.2	0
11	167	0.3	0
11	541	0.4	3211520
11	1055	0.5	657920
11	1327	0.6	822400
12	21	0.024232458152	416
12	167	0.344500410308	416
12	364	0.363071091206	8224
12	414	0.372388279605	8224
12	489	0.39020215277	8224
12	560	0.408036896726	8224
12	632	0.426130767159	8224
12	801	0.470775462059	8224
12	943	0.506763268858	8224
12	974	0.515640445825	8224
12	1038	0.533534308121	8224
12	1191	0.569022993548	8224
12	1231	0.577920165545	8224
12	1262	0.587037336814	8224
12	1301	0.595934507373	8224
12	1368	0.613658363896	8224
13	167	0.1	4160
13	167	0.2	0
13	167	0.3	0
13	560	0.4	250880
13	943	0.5	246720
13	1368	0.6	575680
14	338	0.363061091206	8224
14	339	0.363061091206	8224
14	340	0.363061091206	8224
14	341	0.363061091206	8224
14	342	0.363061091206	8224
14	343	0.363061091206	8224
14	344	0.363061091206	8224
14	345	0.363061091206	8224
14	346	0.363061091206	8224
14	347	0.363061091206	8224
14	348	0.363061091206	8224
14	349	0.363061091206	8224
14	350	0.363061091206	8224
14	351	0.363061091206	8224
14	352	0.363061091206	8224
14	353	0.363061091206	8224
14	354	0.363061091206	8224
14	355	0.363061091206	8224
14	356	0.363061091206	8224
14	357	0.363061091206	8224
14	358	0.363061091206	8224
14	359	0.363061091206	8224
14	360	0.363061091206	8224
14	361	0.363061091206	8224
14	395	0.371433166364	8224
14	466	0.386315236651	8224
14	470	0.388426199196	8224
14	613	0.420388779638	8224
14	684	0.435651346487	8224
14	854	0.483198848399	8224
14	890	0.496636620788	8224
14	1164	0.563281545645	8224
14	1168	0.567495658718	8224
14	1186	0.569012322355	8224
14	1212	0.574400302559	8224
18	1332	0.604720507353	1055
19	433	0.38105427959	1055
19	583	0.416862896705	1055
19	656	0.434836767143	1055
19	693	0.44377365384	1055
19	825	0.479461462043	1055
19	993	0.524246445812	1055
19	1094	0.551078247228	1055
19	1131	0.559915133929	1055
22	0	0	0
22	0	0	0
22	0	0	0
22	0	0	0.002
22	23	0.024302458152	0
22	23	0.024302458152	0
22	23	0.024302458152	0.002
22	24	0.024302458152	0
22	24	0.024302458152	0.1
22	29	0.025030458152	0.002
22	29	0.025030458152	0
22	29	0.025030458152	0.002
22	29	0.025030458152	0.002
22	29	0.025030458152	0.002
22	49	0.029320298939	0
22	49	0.029320298939	0.01
22	58	0.030048298939	0.002
22	169	0.344570410308	0
22	169	0.344570410308	0
22	169	0.344570410308	0.002
22	169	0.344570410308	0.002
22	170	0.344570410308	0
22	170	0.344570410308	0.1
22	175	0.345298410308	0.002
22	175	0.345298410308	0
[...]
195	2920	1.100349376947	0.002
195	2929	1.100799376947	0.005
195	2939	1.109335376947	0.002
195	2949	1.109446308967	0.005
195	2967	1.117982308967	0.002
195	2971	1.117992506518	0.005
195	2976	1.118232506518	0.002
195	2987	1.118443437531	0.005
195	2995	1.126979437531	0.002
195	2999	1.126989635044	0.005
195	3004	1.127229635044	0.002
195	3015	1.127320565381	0.005
195	3024	1.135856565381	0.002
195	3028	1.135866762857	0.005
195	3033	1.136106762857	0.002
195	3043	1.138096762857	0.005
195	3054	1.146632762857	0.002
195	3066	1.147183692042	0.005
195	3077	1.155719692042	0.002
195	3081	1.155729889434	0.005
195	3086	1.155969889434	0.002
195	3097	1.15630081759	0.005
195	3105	1.16483681759	0.002
195	3109	1.164847014944	0.005
195	3114	1.165087014944	0.002
195	3124	1.167677014944	0.005
195	3135	1.176213014944	0.002
195	3147	1.176843941891	0.005
195	3162	1.185379941891	0.002
195	3166	1.185390139158	0.005
195	3171	1.185630139158	0.002
195	3182	1.185861065077	0.005
195	3190	1.194397065077	0.002
195	3194	1.194407262305	0.005
195	3199	1.194647262305	0.002
195	3210	1.195158187533	0.005
195	3222	1.203694187533	0.002
195	3226	1.203704384723	0.005
195	3231	1.203944384723	0.002
195	3240	1.204414384723	0.005
195	3246	1.212950384723	0.002
195	3265	1.230721248224	0.005
195	3272	1.239257248224	0.002
195	3276	1.239267445263	0.005
195	3281	1.239507445263	0.002
195	3289	1.240117445263	0.005
195	3298	1.248653445263	0.002
195	3311	1.249324366736	0.005
195	3327	1.257860366736	0.002
195	3331	1.257870563696	0.005
195	3336	1.258110563696	0.002
195	3347	1.258301484142	0.005
195	3355	1.266837484142	0.002
195	3359	1.266847681063	0.005
195	3364	1.267087681063	0.002
195	3375	1.267718600815	0.005
195	3388	1.276254600815	0.002
195	3392	1.276264797696	0.005
195	3397	1.276504797696	0.002
195	3408	1.276795716749	0.005
195	3417	1.285331716749	0.002
195	3421	1.285341913591	0.005
195	3426	1.285581913591	0.002
195	3443	1.288821175656	0.005
195	3456	1.297357175656	0.002
195	3460	1.297367372448	0.005
195	3465	1.297607372448	0.002
195	3476	1.297818289911	0.005
195	3494	1.306354289911	0.002
195	3498	1.306364486664	0.005
195	3503	1.306604486664	0.002
195	3514	1.306695403452	0.005
195	3523	1.315231403452	0.002
195	3527	1.315241600167	0.005
195	3532	1.315481600167	0.002
195	3543	1.315632516282	0.005
195	3556	1.324168516282	0.002
195	3560	1.324178712959	0.005
195	3565	1.324418712959	0.002
195	3576	1.325069628381	0.005
195	3589	1.333605628381	0.002
195	3593	1.333615825018	0.005
195	3598	1.333855825018	0.002
195	3609	1.334066739744	0.005
195	3630	1.342602739744	0.002
195	3634	1.342612936342	0.005
195	3639	1.342852936342	0.002
195	3650	1.343443850375	0.005
195	3663	1.351979850375	0.002
195	3667	1.351990046933	0.005
195	3672	1.352230046933	0.002
195	3683	1.352360960275	0.005
195	3692	1.360896960275	0.002
195	3696	1.360907156794	0.005
195	3701	1.361147156794	0.002
195	3712	1.361518069454	0.005
195	3729	1.370054069454	0.002
195	3733	1.370064265934	0.005
195	3738	1.370304265934	0.002
195	3749	1.370415177912	0.005
195	3758	1.378951177912	0.002
195	3762	1.378961374354	0.005
195	3767	1.379201374354	0.002
195	3778	1.37961228565	0.005
195	3791	1.38814828565	0.002
195	3795	1.388158482052	0.005
195	3800	1.388398482052	0.002
195	3811	1.388789392655	0.005
195	3820	1.397325392655	0.002
195	3824	1.397335589017	0.005
195	3829	1.397575589017	0.002
195	3840	1.397646498939	0.005
195	3856	1.406182498939	0.002
195	3860	1.406192695263	0.005
195	3865	1.406432695263	0.002
195	3876	1.407063604497	0.005
195	3897	1.415599604497	0.002
195	3901	1.41560980078	0.005
195	3906	1.41584980078	0.002
195	3917	1.416140709316	0.005
195	3931	1.424676709316	0.002
195	3935	1.42468690556	0.005
195	3940	1.42492690556	0.002
195	3951	1.425557813399	0.005
195	3960	1.434093813399	0.002
195	3964	1.434104009603	0.005
195	3969	1.434344009603	0.002
195	3980	1.43443491675	0.005
195	3989	1.44297091675	0.002
195	3993	1.442981112916	0.005
195	3998	1.443221112916	0.002
195	4013	1.450131112916	0.005
195	4032	1.458667112916	0.002
195	4043	1.458978018552	0.005
195	4054	1.467514018552	0.002
195	4058	1.467524214611	0.005
195	4063	1.467764214611	0.002
195	4074	1.468375119219	0.005
195	4082	1.476911119219	0.002
195	4086	1.476921315237	0.005
195	4095	1.477161315237	0.002
195	4107	1.477552219143	0.005
195	4115	1.486088219143	0.002
195	4119	1.486098415122	0.005
195	4124	1.486338415122	0.002
195	4135	1.486569318342	0.005
195	4148	1.495105318342	0.002
195	4152	1.495115514281	0.005
195	4157	1.495355514281	0.002
195	4168	1.495826416813	0.005
195	4180	1.504362416813	0.002
195	4184	1.504372612712	0.005
195	4189	1.504612612712	0.002
195	4200	1.504843514554	0.005
195	4213	1.513379514554	0.002
195	4217	1.513389710414	0.005
195	4222	1.513629710414	0.002
195	4233	1.513680611583	0.005
195	4246	1.522216611583	0.002
195	4250	1.522226807404	0.005
195	4255	1.522466807404	0.002
195	4266	1.523077707886	0.005
195	4279	1.531613707886	0.002
195	4283	1.531623903666	0.005
195	4288	1.531863903666	0.002
195	4299	1.532094803454	0.005
195	4308	1.540630803454	0.002
195	4312	1.540640999195	0.005
195	4317	1.540880999195	0.002
195	4328	1.54145189829	0.005
195	4341	1.54998789829	0.002
195	4345	1.549998093991	0.005
195	4350	1.550238093991	0.002
195	4363	1.550908992377	0.005
195	4382	1.559444992377	0.002
195	4386	1.559455188036	0.005
195	4391	1.559695188036	0.002
195	4404	1.56036608571	0.005
196	1561	0.667200056679	3
196	1577	0.675736056679	2
196	1632	0.685134790463	3
196	1644	0.693670790463	2
197	1383	0.622264223021	1
197	1394	0.622515191899	2
197	1405	0.631051191899	1
197	1409	0.631061391449	2
197	1414	0.631301391449	1
197	1426	0.631572359311	2
197	1439	0.640108359311	1
197	1443	0.640118558824	2
197	1448	0.640358558824	1
197	1460	0.640449526005	2
197	1474	0.648985526005	1
197	1478	0.648995725483	2
197	1483	0.649235725483	1
197	1495	0.649286691993	2
197	1509	0.657822691993	1
197	1513	0.657832891436	2
197	1518	0.658072891436	1
197	1530	0.658243857273	2
197	1544	0.666779857273	1
197	1548	0.666790056679	2
197	1553	0.667030056679	1
197	1561	0.667200056679	0
197	1577	0.675736056679	1
197	1589	0.675747124428	3
197	1594	0.675987124428	1
197	1605	0.676118591129	2
197	1615	0.684654591129	1
197	1619	0.684664790463	2
197	1624	0.684904790463	1
197	1632	0.685134790463	0
197	1644	0.693670790463	1
197	1656	0.693681858248	3
197	1661	0.693921858248	1
197	1671	0.694393324275	2
197	1688	0.702929324275	1
197	1692	0.702939523536	2
197	1697	0.703179523536	1
197	1707	0.703769523536	2
197	1721	0.712305523536	1
197	1731	0.712436485596	2
197	1746	0.720972485596	1
197	1750	0.720982684784	2
197	1755	0.721222684784	1
197	1766	0.721893645818	2
197	1779	0.730429645818	1
197	1783	0.730439844968	2
197	1788	0.730679844968	1
197	1799	0.730770805307	2
197	1809	0.739306805307	1
197	1813	0.739317004421	2
197	1818	0.739557004421	1
197	1827	0.739747004421	2
197	1834	0.748283004421	1
197	1846	0.748693963746	2
197	1860	0.757229963746	1
197	1864	0.757240162786	2
197	1869	0.757480162786	1
197	1880	0.758111121076	2
197	1889	0.766647121076	1
197	1893	0.766657320079	2
197	1898	0.766897320079	1
197	1909	0.767228277667	2
197	1919	0.775764277667	1
197	1923	0.775774476632	2
197	1928	0.776014476632	1
197	1939	0.776065433539	2
197	1949	0.784601433539	1
197	1953	0.784611632468	2
197	1958	0.784851632468	1
197	1969	0.784982588703	2
197	1983	0.793518588703	1
197	1987	0.793528787596	2
197	1992	0.793768787596	1
197	2003	0.794039743151	2
197	2016	0.802575743151	1
197	2020	0.802585942007	2
197	2025	0.802825942007	1
197	2036	0.803436896864	2
197	2050	0.811972896864	1
197	2054	0.811983095681	2
197	2059	0.812223095681	1
197	2071	0.812774049828	2
197	2080	0.821310049828	1
197	2084	0.821320248608	2
197	2089	0.821560248608	1
197	2100	0.821871202058	2
197	2114	0.830407202058	1
197	2118	0.8304174008	2
197	2123	0.8306574008	1
197	2134	0.831028353559	2
197	2144	0.839564353559	1
197	2148	0.839574552264	2
197	2153	0.839814552264	1
197	2164	0.840345504324	2
197	2174	0.848881504324	1
197	2178	0.848891702991	2
197	2183	0.849131702991	1
197	2192	0.849441702991	2
197	2203	0.857977702991	1
197	2215	0.858368654012	2
197	2225	0.866904654012	1
197	2229	0.866914852605	2
197	2234	0.867154852605	1
197	2245	0.867525802601	2
197	2254	0.876061802601	1
197	2258	0.876072001157	2
197	2263	0.876312001157	1
197	2272	0.876502001157	2
197	2279	0.885038001157	1
197	2291	0.885528950126	2
197	2305	0.894064950126	1
197	2309	0.894075148607	2
197	2314	0.894315148607	1
197	2325	0.894946096538	2
197	2341	0.903482096538	1
197	2345	0.903492294981	2
197	2350	0.903732294981	1
197	2361	0.903943242215	2
197	2371	0.912479242215	1
197	2375	0.912489440621	2
197	2380	0.912729440621	1
197	2397	0.913966070247	2
197	2406	0.922502070247	1
197	2410	0.922512268611	2
197	2416	0.922752268611	1
197	2431	0.925119512634	2
197	2445	0.933655512634	1
197	2449	0.933665710952	2
197	2454	0.933905710952	1
197	2465	0.934216655899	2
197	2477	0.942752655899	1
197	2481	0.94276285418	2
197	2486	0.94300285418	1
197	2497	0.943533798431	2
197	2511	0.952069798431	1
197	2515	0.952079996673	2
197	2520	0.952319996673	1
197	2531	0.952730940223	2
197	2545	0.961266940223	1
197	2549	0.961277138427	2
197	2554	0.961517138427	1
197	2565	0.961868081284	2
197	2587	0.970404081284	1
197	2591	0.97041427945	2
197	2596	0.97065427945	1
197	2608	0.971325221605	2
197	2621	0.979861221605	1
197	2625	0.979871419732	2
197	2630	0.980111419732	1
197	2642	0.980642361177	2
197	2651	0.989178361177	1
197	2655	0.989188559265	2
197	2660	0.989428559265	1
197	2672	0.990059500001	2
197	2689	0.998595500001	1
197	2693	0.99860569805	2
197	2698	0.99884569805	1
197	2709	0.998956638092	2
197	2727	1.007492638092	1
197	2731	1.007502836104	2
197	2736	1.007742836104	1
197	2747	1.007993775468	2
197	2757	1.016529775468	1
197	2761	1.016539973443	2
197	2766	1.016779973443	1
197	2777	1.017070912123	2
197	2791	1.025606912123	1
197	2795	1.02561711006	2
197	2800	1.02585711006	1
197	2811	1.026348048046	2
197	2821	1.034884048046	1
197	2825	1.034894245945	2
197	2830	1.035134245945	1
197	2840	1.044584245945	2
197	2847	1.053120245945	1
197	2857	1.073910245945	2
197	2866	1.082446245945	1
197	2876	1.082796245945	2
197	2889	1.091332245945	1
197	2899	1.091563179321	2
197	2911	1.100099179321	1
197	2915	1.100109376947	2
197	2920	1.100349376947	1
197	2929	1.100799376947	2
197	2939	1.109335376947	1
197	2949	1.109446308967	2
197	2967	1.117982308967	1
197	2971	1.117992506518	2
197	2976	1.118232506518	1
197	2987	1.118443437531	2
197	2995	1.126979437531	1
197	2999	1.126989635044	2
197	3004	1.127229635044	1
197	3015	1.127320565381	2
197	3024	1.135856565381	1
197	3028	1.135866762857	2
197	3033	1.136106762857	1
197	3043	1.138096762857	2
197	3054	1.146632762857	1
197	3066	1.147183692042	2
197	3077	1.155719692042	1
197	3081	1.155729889434	2
197	3086	1.155969889434	1
197	3097	1.15630081759	2
197	3105	1.16483681759	1
197	3109	1.164847014944	2
197	3114	1.165087014944	1
197	3124	1.167677014944	2
197	3135	1.176213014944	1
197	3147	1.176843941891	2
197	3162	1.185379941891	1
197	3166	1.185390139158	2
197	3171	1.185630139158	1
197	3182	1.185861065077	2
197	3190	1.194397065077	1
197	3194	1.194407262305	2
197	3199	1.194647262305	1
197	3210	1.195158187533	2
197	3222	1.203694187533	1
197	3226	1.203704384723	2
197	3231	1.203944384723	1
197	3240	1.204414384723	2
197	3246	1.212950384723	1
197	3265	1.230721248224	2
197	3272	1.239257248224	1
197	3276	1.239267445263	2
197	3281	1.239507445263	1
197	3289	1.240117445263	2
197	3298	1.248653445263	1
197	3311	1.249324366736	2
197	3327	1.257860366736	1
197	3331	1.257870563696	2
197	3336	1.258110563696	1
197	3347	1.258301484142	2
197	3355	1.266837484142	1
197	3359	1.266847681063	2
197	3364	1.267087681063	1
197	3375	1.267718600815	2
197	3388	1.276254600815	1
197	3392	1.276264797696	2
197	3397	1.276504797696	1
197	3408	1.276795716749	2
197	3417	1.285331716749	1
197	3421	1.285341913591	2
197	3426	1.285581913591	1
197	3443	1.288821175656	2
197	3456	1.297357175656	1
197	3460	1.297367372448	2
197	3465	1.297607372448	1
197	3476	1.297818289911	2
197	3494	1.306354289911	1
197	3498	1.306364486664	2
197	3503	1.306604486664	1
197	3514	1.306695403452	2
197	3523	1.315231403452	1
197	3527	1.315241600167	2
197	3532	1.315481600167	1
197	3543	1.315632516282	2
197	3556	1.324168516282	1
197	3560	1.324178712959	2
197	3565	1.324418712959	1
197	3576	1.325069628381	2
197	3589	1.333605628381	1
197	3593	1.333615825018	2
197	3598	1.333855825018	1
197	3609	1.334066739744	2
197	3630	1.342602739744	1
197	3634	1.342612936342	2
197	3639	1.342852936342	1
197	3650	1.343443850375	2
197	3663	1.351979850375	1
197	3667	1.351990046933	2
197	3672	1.352230046933	1
197	3683	1.352360960275	2
197	3692	1.360896960275	1
197	3696	1.360907156794	2
197	3701	1.361147156794	1
197	3712	1.361518069454	2
197	3729	1.370054069454	1
197	3733	1.370064265934	2
197	3738	1.370304265934	1
197	3749	1.370415177912	2
197	3758	1.378951177912	1
197	3762	1.378961374354	2
197	3767	1.379201374354	1
197	3778	1.37961228565	2
197	3791	1.38814828565	1
197	3795	1.388158482052	2
197	3800	1.388398482052	1
197	3811	1.388789392655	2
197	3820	1.397325392655	1
197	3824	1.397335589017	2
197	3829	1.397575589017	1
197	3840	1.397646498939	2
197	3856	1.406182498939	1
197	3860	1.406192695263	2
197	3865	1.406432695263	1
197	3876	1.407063604497	2
197	3897	1.415599604497	1
197	3901	1.41560980078	2
197	3906	1.41584980078	1
197	3917	1.416140709316	2
197	3931	1.424676709316	1
197	3935	1.42468690556	2
197	3940	1.42492690556	1
197	3951	1.425557813399	2
197	3960	1.434093813399	1
197	3964	1.434104009603	2
197	3969	1.434344009603	1
197	3980	1.43443491675	2
197	3989	1.44297091675	1
197	3993	1.442981112916	2
197	3998	1.443221112916	1
197	4013	1.450131112916	2
197	4032	1.458667112916	1
197	4043	1.458978018552	2
197	4054	1.467514018552	1
197	4058	1.467524214611	2
197	4063	1.467764214611	1
197	4074	1.468375119219	2
197	4082	1.476911119219	1
197	4086	1.476921315237	2
197	4095	1.477161315237	1
197	4107	1.477552219143	2
197	4115	1.486088219143	1
197	4119	1.486098415122	2
197	4124	1.486338415122	1
197	4135	1.486569318342	2
197	4148	1.495105318342	1
197	4152	1.495115514281	2
197	4157	1.495355514281	1
197	4168	1.495826416813	2
197	4180	1.504362416813	1
197	4184	1.504372612712	2
197	4189	1.504612612712	1
197	4200	1.504843514554	2
197	4213	1.513379514554	1
197	4217	1.513389710414	2
197	4222	1.513629710414	1
197	4233	1.513680611583	2
197	4246	1.522216611583	1
197	4250	1.522226807404	2
197	4255	1.522466807404	1
197	4266	1.523077707886	2
197	4279	1.531613707886	1
197	4283	1.531623903666	2
197	4288	1.531863903666	1
197	4299	1.532094803454	2
197	4308	1.540630803454	1
197	4312	1.540640999195	2
197	4317	1.540880999195	1
197	4328	1.54145189829	2
197	4341	1.54998789829	1
197	4345	1.549998093991	2
197	4350	1.550238093991	1
197	4363	1.550908992377	2
197	4382	1.559444992377	1
197	4386	1.559455188036	2
197	4391	1.559695188036	1
197	4404	1.56036608571	2
198	1561	0.667200056679	1
198	1562	0.667200056679	2
198	1577	0.675736056679	1
198	1577	0.675736056679	0
198	1632	0.685134790463	1
198	1633	0.685134790463	2
198	1644	0.693670790463	1
198	1644	0.693670790463	0
11	4409	1.568901918634	835506.48721112
13	4409	1.568901918634	835506.48721112
16	4409	0.1	0
16	4409	0.2	0
16	4409	0.3	0
16	4409	0.4	0
16	4409	0.5	0
16	4409	0.6	0
16	4409	0.7	0
16	4409	0.8	0
16	4409	0.9	0
16	4409	1	0
16	4409	1.1	0
16	4409	1.2	0
16	4409	1.3	0
16	4409	1.4	0
16	4409	1.5	0
16	4409	1.568901918634	0
17	4409	0.1	0
17	4409	0.2	0
17	4409	0.3	0
17	4409	0.4	0
17	4409	0.5	0
17	4409	0.6	0
17	4409	0.7	0
17	4409	0.8	0
17	4409	0.9	0
17	4409	1	0
17	4409	1.1	0
17	4409	1.2	0
17	4409	1.3	0
17	4409	1.4	0
17	4409	1.5	0
17	4409	1.568901918634	0
36	4409	1.568901918634	819251.49718756
42	4409	0.1	0
42	4409	0.2	0
42	4409	0.3	0
42	4409	0.4	0
42	4409	0.5	0
42	4409	0.6	0
42	4409	0.7	0
42	4409	0.8	0
42	4409	0.9	0
42	4409	1	0
42	4409	1.1	0
42	4409	1.2	0
42	4409	1.3	0
42	4409	1.4	0
42	4409	1.5	0
42	4409	1.568901918634	0
57	4409	0.4	3840
57	4409	0.5	0
57	4409	0.6	0
57	4409	0.7	0
57	4409	0.8	0
57	4409	0.9	0
57	4409	1	0
57	4409	1.1	0
57	4409	1.2	0
57	4409	1.3	0
57	4409	1.4	0
57	4409	1.5	0
57	4409	1.568901918634	0
59	4409	0.4	3840
59	4409	0.5	0
59	4409	0.6	0
59	4409	0.7	0
59	4409	0.8	0
59	4409	0.9	0
59	4409	1	0
59	4409	1.1	0
59	4409	1.2	0
59	4409	1.3	0
59	4409	1.4	0
59	4409	1.5	0
59	4409	1.568901918634	0
62	4409	0.1	0
62	4409	0.2	0
62	4409	0.3	0
62	4409	0.4	0
62	4409	0.5	0
62	4409	0.6	0
62	4409	0.7	0
62	4409	0.8	0
62	4409	0.9	0
62	4409	1	0
62	4409	1.1	0
62	4409	1.2	0
62	4409	1.3	0
62	4409	1.4	0
62	4409	1.5	0
62	4409	1.568901918634	0
63	4409	0.1	0
63	4409	0.2	0
63	4409	0.3	0
63	4409	0.4	0
63	4409	0.5	0
63	4409	0.6	0
63	4409	0.7	0
63	4409	0.8	0
63	4409	0.9	0
63	4409	1	0
63	4409	1.1	0
63	4409	1.2	0
63	4409	1.3	0
63	4409	1.4	0
63	4409	1.5	0
63	4409	1.568901918634	0
82	4409	0.4	2240
82	4409	0.5	0
82	4409	0.6	0
82	4409	0.7	0
82	4409	0.8	0
82	4409	0.9	0
82	4409	1	0
82	4409	1.1	0
82	4409	1.2	0
82	4409	1.3	0
82	4409	1.4	0
82	4409	1.5	0
82	4409	1.568901918634	0
88	4409	0.7	160000
88	4409	0.8	0
88	4409	0.9	0
88	4409	1	0
88	4409	1.1	0
88	4409	1.2	0
88	4409	1.3	0
88	4409	1.4	0
88	4409	1.5	0
88	4409	1.568901918634	0
102	4409	0.1	0
102	4409	0.2	0
102	4409	0.3	0
102	4409	0.4	0
102	4409	0.5	0
102	4409	0.6	0
102	4409	0.7	0
102	4409	0.8	0
102	4409	0.9	0
102	4409	1	0
102	4409	1.1	0
102	4409	1.2	0
102	4409	1.3	0
102	4409	1.4	0
102	4409	1.5	0
102	4409	1.568901918634	0
104	4409	0.1	0
104	4409	0.2	0
104	4409	0.3	0
104	4409	0.4	0
104	4409	0.5	0
104	4409	0.6	0
104	4409	0.7	0
104	4409	0.8	0
104	4409	0.9	0
104	4409	1	0
104	4409	1.1	0
104	4409	1.2	0
104	4409	1.3	0
104	4409	1.4	0
104	4409	1.5	0
104	4409	1.568901918634	0
107	4409	0.1	0
107	4409	0.2	0
107	4409	0.3	0
107	4409	0.4	0
107	4409	0.5	0
107	4409	0.6	0
107	4409	0.7	0
107	4409	0.8	0
107	4409	0.9	0
107	4409	1	0
107	4409	1.1	0
107	4409	1.2	0
107	4409	1.3	0
107	4409	1.4	0
107	4409	1.5	0
107	4409	1.568901918634	0
108	4409	0.1	0
108	4409	0.2	0
108	4409	0.3	0
108	4409	0.4	0
108	4409	0.5	0
108	4409	0.6	0
108	4409	0.7	0
108	4409	0.8	0
108	4409	0.9	0
108	4409	1	0
108	4409	1.1	0
108	4409	1.2	0
108	4409	1.3	0
108	4409	1.4	0
108	4409	1.5	0
108	4409	1.568901918634	0
127	4409	0.1	0
127	4409	0.2	0
127	4409	0.3	0
127	4409	0.4	0
127	4409	0.5	0
127	4409	0.6	0
127	4409	0.7	0
127	4409	0.8	0
127	4409	0.9	0
127	4409	1	0
127	4409	1.1	0
127	4409	1.2	0
127	4409	1.3	0
127	4409	1.4	0
127	4409	1.5	0
127	4409	1.568901918634	0
143	4409	1.5	4160
143	4409	1.568901918634	0
145	4409	1.1	82240
145	4409	1.2	0
145	4409	1.3	0
145	4409	1.4	0
145	4409	1.5	0
145	4409	1.568901918634	0
148	4409	0.1	0
148	4409	0.2	0
148	4409	0.3	0
148	4409	0.4	0
148	4409	0.5	0
148	4409	0.6	0
148	4409	0.7	0
148	4409	0.8	0
148	4409	0.9	0
148	4409	1	0
148	4409	1.1	0
148	4409	1.2	0
148	4409	1.3	0
148	4409	1.4	0
148	4409	1.5	0
148	4409	1.568901918634	0
149	4409	0.1	0
149	4409	0.2	0
149	4409	0.3	0
149	4409	0.4	0
149	4409	0.5	0
149	4409	0.6	0
149	4409	0.7	0
149	4409	0.8	0
149	4409	0.9	0
149	4409	1	0
149	4409	1.1	0
149	4409	1.2	0
149	4409	1.3	0
149	4409	1.4	0
149	4409	1.5	0
149	4409	1.568901918634	0
168	4409	1.5	2560
168	4409	1.568901918634	0
184	4409	0.6	246720
184	4409	0.7	0
184	4409	0.8	0
184	4409	0.9	0
184	4409	1	0
184	4409	1.1	0
184	4409	1.2	0
184	4409	1.3	0
184	4409	1.4	0
184	4409	1.5	0
184	4409	1.568901918634	0
186	4409	0.7	82240
186	4409	0.8	0
186	4409	0.9	0
186	4409	1	0
186	4409	1.1	0
186	4409	1.2	0
186	4409	1.3	0
186	4409	1.4	0
186	4409	1.5	0
186	4409	1.568901918634	0
189	4409	0.1	0
189	4409	0.2	0
189	4409	0.3	0
189	4409	0.4	0
189	4409	0.5	0
189	4409	0.6	0
189	4409	0.7	0
189	4409	0.8	0
189	4409	0.9	0
189	4409	1	0
189	4409	1.1	0
189	4409	1.2	0
189	4409	1.3	0
189	4409	1.4	0
189	4409	1.5	0
189	4409	1.568901918634	0
190	4409	0.1	0
190	4409	0.2	0
190	4409	0.3	0
190	4409	0.4	0
190	4409	0.5	0
190	4409	0.6	0
190	4409	0.7	0
190	4409	0.8	0
190	4409	0.9	0
190	4409	1	0
190	4409	1.1	0
190	4409	1.2	0
190	4409	1.3	0
190	4409	1.4	0
190	4409	1.5	0
190	4409	1.568901918634	0
209	4409	0.4	4800
209	4409	0.5	0
209	4409	0.6	0
209	4409	0.7	0
209	4409	0.8	0
209	4409	0.9	0
209	4409	1	0
209	4409	1.1	0
209	4409	1.2	0
209	4409	1.3	0
209	4409	1.4	0
209	4409	1.5	0
209	4409	1.568901918634	0

