version 3
run Wireless10-0-20260603-22:44:13-164263
attr configname Wireless10
attr datetime 20260603-22:44:13
attr datetimef 20260603-224413
attr experiment Wireless10
attr inifile omnetpp.ini
attr iterationvars ""
attr iterationvarsd ""
attr iterationvarsf ""
attr measurement ""
attr network WirelessB2
attr processid 164263
attr repetition 0
attr replication #0
attr resultdir results
attr runnumber 0
attr seedset 0
config image-path ../inet-4.6.0/images
config description "Configuring ad-hoc routing (AODV)"
config extends Wireless09
config *.configurator.addStaticRoutes false
config *.host*.typename AodvRouter
config *.hostB.wlan[0].radio.displayCommunicationRange true
config *.visualizer.dataLinkVisualizer.packetFilter "\"AODV*\""
config description "Configuring node movements"
config extends Wireless08
config *.hostR*.mobility.typename LinearMobility
config *.hostR*.mobility.speed 12mps
config *.hostR*.mobility.initialMovementHeading 270deg
config *.host*.wlan[0].queue.packetCapacity 10
config *.visualizer.mobilityVisualizer.displayVelocities true
config *.visualizer.mobilityVisualizer.displayMovementTrails true
config description "Modeling energy consumption"
config extends Wireless07
config *.host*.wlan[0].radio.energyConsumer.typename StateBasedEpEnergyConsumer
config *.host*.wlan[0].radio.energyConsumer.offPowerConsumption 0mW
config *.host*.wlan[0].radio.energyConsumer.sleepPowerConsumption 1mW
config *.host*.wlan[0].radio.energyConsumer.switchingPowerConsumption 1mW
config *.host*.wlan[0].radio.energyConsumer.receiverIdlePowerConsumption 2mW
config *.host*.wlan[0].radio.energyConsumer.receiverBusyPowerConsumption 5mW
config *.host*.wlan[0].radio.energyConsumer.receiverReceivingPowerConsumption 10mW
config *.host*.wlan[0].radio.energyConsumer.transmitterIdlePowerConsumption 2mW
config *.host*.wlan[0].radio.energyConsumer.transmitterTransmittingPowerConsumption 100mW
config *.host*.energyStorage.typename IdealEpEnergyStorage
config *.host*.wlan[0].radio.displayInterferenceRange false
config *.hostR1.wlan[0].radio.displayCommunicationRange false
config *.visualizer.mediumVisualizer.displaySignals false
config description "Turning on ACKs in CSMA"
config extends Wireless06
config *.host*.wlan[0].mac.useAck true
config description "Using CSMA to better utilize the medium"
config extends Wireless05
config *.host*.wlan[0].typename WirelessInterface
config *.host*.wlan[0].radio.typename GenericRadio
config *.host*.wlan[0].mac.typename CsmaCaMac
config *.host*.wlan[0].mac.ackTimeout 300us
config *.host*.wlan[0].queue.typename DropTailQueue
config *.host*.wlan[0].queue.packetCapacity -1
config description "Taking interference into account"
config extends Wireless04
config *.host*.wlan[0].radio.receiver.ignoreInterference false
config *.host*.wlan[0].radio.transmitter.analogModel.interferenceRange 500m
config *.hostA.wlan[0].radio.displayInterferenceRange true
config *.visualizer.dataLinkVisualizer.packetFilter "\"\""
config description "Setting up static routing"
config extends Wireless03
config *.host*.forwarding true
config *.configurator.config "xml(\"<config><interface hosts='**' address='10.0.0.x' netmask='255.255.255.0'/><autoroute metric='errorRate'/></config>\")"
config *.configurator.optimizeRoutes false
config *.host*.ipv4.routingTable.netmaskRoutes "\"\""
config *.visualizer.physicalLinkVisualizer.displayLinks true
config *.visualizer.dataLinkVisualizer.displayLinks true
config *.visualizer.networkRouteVisualizer.displayRoutes true
config *.visualizer.*LinkVisualizer.lineShift 0
config *.visualizer.networkRouteVisualizer.lineShift 0
config *.visualizer.networkRouteVisualizer.packetFilter "\"UDPData*\""
config description "Adding more nodes and decreasing the communication range"
config extends Wireless02
config network WirelessB2
config *.host*.wlan[0].radio.transmitter.analogModel.communicationRange 250m
config *.hostR1.wlan[0].radio.displayCommunicationRange true
config *.hostR2.wlan[0].radio.displayCommunicationRange true
config *.hostR3.wlan[0].radio.displayCommunicationRange true
config description "Setting up some animations"
config extends Wireless01
config *.hostA.wlan[0].radio.displayCommunicationRange true
config *.visualizer.sceneVisualizer.descriptionFigure "\"title\""
config *.visualizer.mediumVisualizer.displaySignals true
config *.visualizer.physicalLinkVisualizer.displayLinks true
config *.visualizer.physicalLinkVisualizer.packetFilter "\"UDPData*\""
config description "Two hosts communicating wirelessly"
config network WirelessA2
config sim-time-limit 20s
config *.radioMedium.signalAnalogRepresentation "\"unitDisk\""
config *.host*.ipv4.arp.typename GlobalArp
config *.hostA.numApps 1
config *.hostA.app[0].typename UdpBasicApp
config *.hostA.app[0].destAddresses "\"hostB\""
config *.hostA.app[0].destPort 5000
config *.hostA.app[0].messageLength 1000B
config *.hostA.app[0].sendInterval exponential(12ms)
config *.hostA.app[0].packetName "\"UDPData\""
config *.hostB.numApps 1
config *.hostB.app[0].typename UdpSink
config *.hostB.app[0].localPort 5000
config *.host*.wlan[0].typename AckingWirelessInterface
config *.host*.wlan[0].mac.useAck false
config *.host*.wlan[0].mac.fullDuplex false
config *.host*.wlan[0].radio.signalAnalogRepresentation "\"unitDisk\""
config *.host*.wlan[0].radio.transmitter.analogModel.communicationRange 500m
config *.host*.wlan[0].radio.receiver.ignoreInterference true
config *.host*.wlan[0].mac.headerLength 23B
config *.host*.**.bitrate 1Mbps

par WirelessB2.visualizer.sceneVisualizer typename "\"inet.visualizer.canvas.scene.SceneCanvasVisualizer\""
par WirelessB2.visualizer.sceneVisualizer displayStringTextFormat "\"\""
attr mutable ""
par WirelessB2.visualizer.sceneVisualizer visualizationTargetModule "\"^.^\""
par WirelessB2.visualizer.sceneVisualizer visualizationSubjectModule "\"^.^\""
par WirelessB2.visualizer.sceneVisualizer tags "\"\""
par WirelessB2.visualizer.sceneVisualizer physicalEnvironmentModule "\"physicalEnvironment\""
par WirelessB2.visualizer.sceneVisualizer networkNodeVisualizerModule "\"^.networkNodeVisualizer\""
par WirelessB2.visualizer.sceneVisualizer axisLength "nan m"
attr mutable ""
attr unit m
par WirelessB2.visualizer.sceneVisualizer animationSpeed 0
par WirelessB2.visualizer.sceneVisualizer sceneMinX "nan m"
attr unit m
par WirelessB2.visualizer.sceneVisualizer sceneMinY "nan m"
attr unit m
par WirelessB2.visualizer.sceneVisualizer sceneMinZ "nan m"
attr unit m
par WirelessB2.visualizer.sceneVisualizer sceneMaxX "nan m"
attr unit m
par WirelessB2.visualizer.sceneVisualizer sceneMaxY "nan m"
attr unit m
par WirelessB2.visualizer.sceneVisualizer sceneMaxZ "nan m"
attr unit m
par WirelessB2.visualizer.sceneVisualizer zIndex 0
par WirelessB2.visualizer.sceneVisualizer viewAngle "\"x right y down z out\""
attr mutable ""
par WirelessB2.visualizer.sceneVisualizer viewScale "\"1 1\""
attr mutable ""
par WirelessB2.visualizer.sceneVisualizer viewTranslation "\"0 0\""
attr mutable ""
par WirelessB2.visualizer.sceneVisualizer descriptionFigure "\"title\""
par WirelessB2.visualizer.physicalEnvironmentVisualizer typename "\"inet.visualizer.canvas.environment.PhysicalEnvironmentCanvasVisualizer\""
par WirelessB2.visualizer.physicalEnvironmentVisualizer displayStringTextFormat "\"\""
attr mutable ""
par WirelessB2.visualizer.physicalEnvironmentVisualizer visualizationTargetModule "\"^.^\""
par WirelessB2.visualizer.physicalEnvironmentVisualizer visualizationSubjectModule "\"^.^\""
par WirelessB2.visualizer.physicalEnvironmentVisualizer tags "\"\""
par WirelessB2.visualizer.physicalEnvironmentVisualizer physicalEnvironmentModule "\"physicalEnvironment\""
par WirelessB2.visualizer.physicalEnvironmentVisualizer displayObjects true
par WirelessB2.visualizer.physicalEnvironmentVisualizer zIndex 0
par WirelessB2.visualizer.networkNodeVisualizer typename "\"inet.visualizer.canvas.scene.NetworkNodeCanvasVisualizer\""
par WirelessB2.visualizer.networkNodeVisualizer displayStringTextFormat "\"\""
attr mutable ""
par WirelessB2.visualizer.networkNodeVisualizer visualizationTargetModule "\"^.^\""
par WirelessB2.visualizer.networkNodeVisualizer visualizationSubjectModule "\"^.^\""
par WirelessB2.visualizer.networkNodeVisualizer tags "\"\""
par WirelessB2.visualizer.networkNodeVisualizer nodeFilter "\"*\""
attr mutable ""
par WirelessB2.visualizer.networkNodeVisualizer annotationSpacing 4
par WirelessB2.visualizer.networkNodeVisualizer placementPenalty 10
par WirelessB2.visualizer.networkNodeVisualizer zIndex 0
par WirelessB2.visualizer.networkConnectionVisualizer typename "\"inet.visualizer.canvas.scene.NetworkConnectionCanvasVisualizer\""
par WirelessB2.visualizer.networkConnectionVisualizer displayStringTextFormat "\"\""
attr mutable ""
par WirelessB2.visualizer.networkConnectionVisualizer visualizationTargetModule "\"^.^\""
par WirelessB2.visualizer.networkConnectionVisualizer visualizationSubjectModule "\"^.^\""
par WirelessB2.visualizer.networkConnectionVisualizer tags "\"\""
par WirelessB2.visualizer.networkConnectionVisualizer displayNetworkConnections true
par WirelessB2.visualizer.networkConnectionVisualizer nodeFilter "\"\""
attr mutable ""
par WirelessB2.visualizer.networkConnectionVisualizer lineColor "\"black\""
par WirelessB2.visualizer.networkConnectionVisualizer lineStyle "\"solid\""
par WirelessB2.visualizer.networkConnectionVisualizer lineWidth 1
par WirelessB2.visualizer.networkConnectionVisualizer zIndex 0
par WirelessB2.visualizer.mobilityVisualizer typename "\"inet.visualizer.canvas.mobility.MobilityCanvasVisualizer\""
par WirelessB2.visualizer.mobilityVisualizer displayStringTextFormat "\"\""
attr mutable ""
par WirelessB2.visualizer.mobilityVisualizer visualizationTargetModule "\"^.^\""
par WirelessB2.visualizer.mobilityVisualizer visualizationSubjectModule "\"^.^\""
par WirelessB2.visualizer.mobilityVisualizer tags "\"\""
par WirelessB2.visualizer.mobilityVisualizer networkNodeVisualizerModule "\"^.networkNodeVisualizer\""
par WirelessB2.visualizer.mobilityVisualizer displayMobility true
par WirelessB2.visualizer.mobilityVisualizer animationSpeed 0
par WirelessB2.visualizer.mobilityVisualizer moduleFilter "\"**.mobility\""
attr mutable ""
par WirelessB2.visualizer.mobilityVisualizer displayPositions false
par WirelessB2.visualizer.mobilityVisualizer positionCircleRadius 4
par WirelessB2.visualizer.mobilityVisualizer positionCircleLineWidth 1
par WirelessB2.visualizer.mobilityVisualizer positionCircleLineColor "\"dark\""
par WirelessB2.visualizer.mobilityVisualizer positionCircleFillColor "\"dark\""
par WirelessB2.visualizer.mobilityVisualizer displayOrientations false
par WirelessB2.visualizer.mobilityVisualizer orientationPieRadius 32
par WirelessB2.visualizer.mobilityVisualizer orientationPieSize 0.2
par WirelessB2.visualizer.mobilityVisualizer orientationPieOpacity 0.25
par WirelessB2.visualizer.mobilityVisualizer orientationLineColor "\"black\""
par WirelessB2.visualizer.mobilityVisualizer orientationLineStyle "\"solid\""
par WirelessB2.visualizer.mobilityVisualizer orientationLineWidth 1
par WirelessB2.visualizer.mobilityVisualizer orientationFillColor "\"blue\""
par WirelessB2.visualizer.mobilityVisualizer displayVelocities true
par WirelessB2.visualizer.mobilityVisualizer velocityArrowScale 1
par WirelessB2.visualizer.mobilityVisualizer velocityLineColor "\"black\""
par WirelessB2.visualizer.mobilityVisualizer velocityLineStyle "\"solid\""
par WirelessB2.visualizer.mobilityVisualizer velocityLineWidth 1
par WirelessB2.visualizer.mobilityVisualizer displayMovementTrails true
par WirelessB2.visualizer.mobilityVisualizer movementTrailLineColor "\"dark\""
par WirelessB2.visualizer.mobilityVisualizer movementTrailLineStyle "\"solid\""
par WirelessB2.visualizer.mobilityVisualizer movementTrailLineWidth 1
par WirelessB2.visualizer.mobilityVisualizer trailLength 100
par WirelessB2.visualizer.mobilityVisualizer zIndex 0
par WirelessB2.visualizer.statisticVisualizer typename "\"inet.visualizer.canvas.common.StatisticCanvasVisualizer\""
par WirelessB2.visualizer.statisticVisualizer displayStringTextFormat "\"\""
attr mutable ""
par WirelessB2.visualizer.statisticVisualizer visualizationTargetModule "\"^.^\""
par WirelessB2.visualizer.statisticVisualizer visualizationSubjectModule "\"^.^\""
par WirelessB2.visualizer.statisticVisualizer tags "\"\""
par WirelessB2.visualizer.statisticVisualizer networkNodeVisualizerModule "\"^.networkNodeVisualizer\""
par WirelessB2.visualizer.statisticVisualizer displayStatistics false
par WirelessB2.visualizer.statisticVisualizer signalName "\"\""
par WirelessB2.visualizer.statisticVisualizer statisticName "\"\""
par WirelessB2.visualizer.statisticVisualizer statisticUnit "\"\""
par WirelessB2.visualizer.statisticVisualizer statisticExpression "\"\""
par WirelessB2.visualizer.statisticVisualizer sourceFilter "\"**\""
attr mutable ""
par WirelessB2.visualizer.statisticVisualizer format "\"%n: %v %u\""
attr mutable ""
par WirelessB2.visualizer.statisticVisualizer unit "\"\""
par WirelessB2.visualizer.statisticVisualizer font "\"<default>\""
par WirelessB2.visualizer.statisticVisualizer textColor "\"black\""
par WirelessB2.visualizer.statisticVisualizer backgroundColor "\"white\""
par WirelessB2.visualizer.statisticVisualizer opacity 1
par WirelessB2.visualizer.statisticVisualizer placementHint "\"top\""
par WirelessB2.visualizer.statisticVisualizer placementPriority 0
par WirelessB2.visualizer.statisticVisualizer zIndex 10
par WirelessB2.visualizer.statisticVisualizer propertyName "\"\""
par WirelessB2.visualizer.statisticVisualizer propertyIndex "\"\""
par WirelessB2.visualizer.infoVisualizer typename "\"inet.visualizer.canvas.common.InfoCanvasVisualizer\""
par WirelessB2.visualizer.infoVisualizer displayStringTextFormat "\"\""
attr mutable ""
par WirelessB2.visualizer.infoVisualizer visualizationTargetModule "\"^.^\""
par WirelessB2.visualizer.infoVisualizer visualizationSubjectModule "\"^.^\""
par WirelessB2.visualizer.infoVisualizer tags "\"\""
par WirelessB2.visualizer.infoVisualizer networkNodeVisualizerModule "\"^.networkNodeVisualizer\""
par WirelessB2.visualizer.infoVisualizer displayInfos true
par WirelessB2.visualizer.infoVisualizer modules "\"\""
attr mutable ""
par WirelessB2.visualizer.infoVisualizer format "\"%t\""
attr mutable ""
par WirelessB2.visualizer.infoVisualizer font "\"<default>\""
par WirelessB2.visualizer.infoVisualizer textColor "\"black\""
par WirelessB2.visualizer.infoVisualizer textAlignment "\"left\""
attr enum left,right,center
par WirelessB2.visualizer.infoVisualizer backgroundColor "\"white\""
par WirelessB2.visualizer.infoVisualizer lineColor "\"black\""
par WirelessB2.visualizer.infoVisualizer opacity 1
par WirelessB2.visualizer.infoVisualizer placementHint "\"top\""
par WirelessB2.visualizer.infoVisualizer placementPriority 0
par WirelessB2.visualizer.infoVisualizer zIndex 10
par WirelessB2.visualizer.energyStorageVisualizer typename "\"inet.visualizer.canvas.power.EnergyStorageCanvasVisualizer\""
par WirelessB2.visualizer.energyStorageVisualizer displayStringTextFormat "\"\""
attr mutable ""
par WirelessB2.visualizer.energyStorageVisualizer visualizationTargetModule "\"^.^\""
par WirelessB2.visualizer.energyStorageVisualizer visualizationSubjectModule "\"^.^\""
par WirelessB2.visualizer.energyStorageVisualizer tags "\"\""
par WirelessB2.visualizer.energyStorageVisualizer networkNodeVisualizerModule "\"^.networkNodeVisualizer\""
par WirelessB2.visualizer.energyStorageVisualizer displayEnergyStorages false
par WirelessB2.visualizer.energyStorageVisualizer energyStorageFilter "\"**\""
par WirelessB2.visualizer.energyStorageVisualizer color "\"green\""
par WirelessB2.visualizer.energyStorageVisualizer width 8
par WirelessB2.visualizer.energyStorageVisualizer height 24
par WirelessB2.visualizer.energyStorageVisualizer spacing 2
par WirelessB2.visualizer.energyStorageVisualizer placementHint "\"right\""
par WirelessB2.visualizer.energyStorageVisualizer placementPriority 0
par WirelessB2.visualizer.energyStorageVisualizer zIndex 10
par WirelessB2.visualizer.mediumVisualizer typename "\"inet.visualizer.canvas.physicallayer.MediumCanvasVisualizer\""
par WirelessB2.visualizer.mediumVisualizer displayStringTextFormat "\"\""
attr mutable ""
par WirelessB2.visualizer.mediumVisualizer visualizationTargetModule "\"^.^\""
par WirelessB2.visualizer.mediumVisualizer visualizationSubjectModule "\"^.^\""
par WirelessB2.visualizer.mediumVisualizer tags "\"\""
par WirelessB2.visualizer.mediumVisualizer mediumModule "\"radioMedium\""
par WirelessB2.visualizer.mediumVisualizer networkNodeVisualizerModule "\"^.networkNodeVisualizer\""
par WirelessB2.visualizer.mediumVisualizer nodeFilter "\"*\""
attr mutable ""
par WirelessB2.visualizer.mediumVisualizer interfaceFilter "\"*\""
attr mutable ""
par WirelessB2.visualizer.mediumVisualizer packetFilter "(omnetpp::cValueHolder)holder: \"*\""
attr mutable ""
par WirelessB2.visualizer.mediumVisualizer displaySignals false
par WirelessB2.visualizer.mediumVisualizer signalColor "\"dark\""
par WirelessB2.visualizer.mediumVisualizer signalPropagationAnimationSpeed "nan "
attr mutable ""
par WirelessB2.visualizer.mediumVisualizer signalPropagationAnimationTime 1s
attr unit s
par WirelessB2.visualizer.mediumVisualizer signalPropagationAdditionalTime 0s
attr unit s
par WirelessB2.visualizer.mediumVisualizer signalTransmissionAnimationSpeed "nan "
attr mutable ""
par WirelessB2.visualizer.mediumVisualizer signalTransmissionAnimationTime 1s
attr unit s
par WirelessB2.visualizer.mediumVisualizer signalAnimationSpeedChangeTimeMode "\"realTime\""
attr enum realTime,animationTime,simulationTime
par WirelessB2.visualizer.mediumVisualizer signalAnimationSpeedChangeTime 1s
attr unit s
par WirelessB2.visualizer.mediumVisualizer displaySignalDepartures false
par WirelessB2.visualizer.mediumVisualizer signalDepartureImage "\"misc/signal_departure.png\""
par WirelessB2.visualizer.mediumVisualizer signalDeparturePlacementHint "\"topCenter\""
par WirelessB2.visualizer.mediumVisualizer signalDeparturePlacementPriority 1
par WirelessB2.visualizer.mediumVisualizer displaySignalArrivals false
par WirelessB2.visualizer.mediumVisualizer signalArrivalImage "\"misc/signal_arrival.png\""
par WirelessB2.visualizer.mediumVisualizer signalArrivalPlacementHint "\"topCenter\""
par WirelessB2.visualizer.mediumVisualizer signalArrivalPlacementPriority -1
par WirelessB2.visualizer.mediumVisualizer displayCommunicationRanges false
par WirelessB2.visualizer.mediumVisualizer communicationRangeLineColor "\"blue\""
par WirelessB2.visualizer.mediumVisualizer communicationRangeLineStyle "\"solid\""
par WirelessB2.visualizer.mediumVisualizer communicationRangeLineWidth 1
par WirelessB2.visualizer.mediumVisualizer displayInterferenceRanges false
par WirelessB2.visualizer.mediumVisualizer interferenceRangeLineColor "\"gray\""
par WirelessB2.visualizer.mediumVisualizer interferenceRangeLineStyle "\"solid\""
par WirelessB2.visualizer.mediumVisualizer interferenceRangeLineWidth 1
par WirelessB2.visualizer.mediumVisualizer autoPowerAxis true
par WirelessB2.visualizer.mediumVisualizer signalMinPower "inf dBmW"
attr unit dBmW
par WirelessB2.visualizer.mediumVisualizer signalMaxPower 0dBmW
attr unit dBmW
par WirelessB2.visualizer.mediumVisualizer signalMinPowerDensity "inf dBmWpMHz"
attr unit dBmWpMHz
par WirelessB2.visualizer.mediumVisualizer signalMaxPowerDensity "-inf dBmWpMHz"
attr unit dBmWpMHz
par WirelessB2.visualizer.mediumVisualizer autoTimeAxis true
par WirelessB2.visualizer.mediumVisualizer signalMinTime 0s
attr unit s
par WirelessB2.visualizer.mediumVisualizer signalMaxTime 0s
attr unit s
par WirelessB2.visualizer.mediumVisualizer autoFrequencyAxis true
par WirelessB2.visualizer.mediumVisualizer signalMinFrequency "inf Hz"
attr unit Hz
par WirelessB2.visualizer.mediumVisualizer signalMaxFrequency "-inf Hz"
attr unit Hz
par WirelessB2.visualizer.mediumVisualizer displayMainPowerDensityMap false
par WirelessB2.visualizer.mediumVisualizer mainPowerDensityMapPixmapDensity 1
par WirelessB2.visualizer.mediumVisualizer mainPowerDensityMapMinX 0
par WirelessB2.visualizer.mediumVisualizer mainPowerDensityMapMaxX "nan "
par WirelessB2.visualizer.mediumVisualizer mainPowerDensityMapMinY 0
par WirelessB2.visualizer.mediumVisualizer mainPowerDensityMapMaxY "nan "
par WirelessB2.visualizer.mediumVisualizer mainPowerDensityMapZ 0
par WirelessB2.visualizer.mediumVisualizer mainPowerDensityMapFigureXTickCount 3
par WirelessB2.visualizer.mediumVisualizer mainPowerDensityMapFigureYTickCount 3
par WirelessB2.visualizer.mediumVisualizer displayPowerDensityMaps false
par WirelessB2.visualizer.mediumVisualizer powerDensityMapMode "\"auto\""
attr enum total,signal,auto
par WirelessB2.visualizer.mediumVisualizer powerDensityMapPixelMode "\"mean\""
attr enum sample,partition,mean
par WirelessB2.visualizer.mediumVisualizer powerDensityMapApproximationSize 10
par WirelessB2.visualizer.mediumVisualizer powerDensityMapCenterFrequency "nan Hz"
attr mutable ""
attr unit Hz
par WirelessB2.visualizer.mediumVisualizer powerDensityMapBandwidth 0Hz
attr mutable ""
attr unit Hz
par WirelessB2.visualizer.mediumVisualizer powerDensityMapFigureWidth 200
par WirelessB2.visualizer.mediumVisualizer powerDensityMapFigureHeight 120
par WirelessB2.visualizer.mediumVisualizer powerDensityMapPixmapWidth 200
par WirelessB2.visualizer.mediumVisualizer powerDensityMapPixmapHeight 120
par WirelessB2.visualizer.mediumVisualizer powerDensityMapZ 0
par WirelessB2.visualizer.mediumVisualizer powerDensityMapFigureXTickCount 3
par WirelessB2.visualizer.mediumVisualizer powerDensityMapFigureYTickCount 3
par WirelessB2.visualizer.mediumVisualizer displaySpectrums false
par WirelessB2.visualizer.mediumVisualizer spectrumMode "\"auto\""
attr enum total,signal,auto
par WirelessB2.visualizer.mediumVisualizer spectrumFigureWidth 200
par WirelessB2.visualizer.mediumVisualizer spectrumFigureHeight 120
par WirelessB2.visualizer.mediumVisualizer spectrumFigureXTickCount 3
par WirelessB2.visualizer.mediumVisualizer spectrumFigureYTickCount 5
par WirelessB2.visualizer.mediumVisualizer spectrumFigureInterpolationSize 5
par WirelessB2.visualizer.mediumVisualizer spectrumPlacementHint "\"bottomCenter\""
par WirelessB2.visualizer.mediumVisualizer spectrumPlacementPriority -1
par WirelessB2.visualizer.mediumVisualizer displaySpectrograms false
par WirelessB2.visualizer.mediumVisualizer spectrogramMode "\"auto\""
attr enum total,signal,auto
par WirelessB2.visualizer.mediumVisualizer spectrogramPixelMode "\"mean\""
attr enum sample,partition,mean
par WirelessB2.visualizer.mediumVisualizer spectrogramFigureWidth 200
par WirelessB2.visualizer.mediumVisualizer spectrogramFigureHeight 120
par WirelessB2.visualizer.mediumVisualizer spectrogramPixmapWidth 200
par WirelessB2.visualizer.mediumVisualizer spectrogramPixmapHeight 120
par WirelessB2.visualizer.mediumVisualizer spectrogramFigureXTickCount 3
par WirelessB2.visualizer.mediumVisualizer spectrogramFigureYTickCount 5
par WirelessB2.visualizer.mediumVisualizer spectrogramPlacementHint "\"bottomCenter\""
par WirelessB2.visualizer.mediumVisualizer spectrogramPlacementPriority -1
par WirelessB2.visualizer.mediumVisualizer zIndex 0
par WirelessB2.visualizer.mediumVisualizer signalShape "\"ring\""
attr enum ring,sphere
par WirelessB2.visualizer.mediumVisualizer signalOpacity 0.5
par WirelessB2.visualizer.mediumVisualizer signalRingCount 20
par WirelessB2.visualizer.mediumVisualizer signalRingSize 50m
attr unit m
par WirelessB2.visualizer.mediumVisualizer signalFadingDistance 50m
attr unit m
par WirelessB2.visualizer.mediumVisualizer signalFadingFactor 1.2
par WirelessB2.visualizer.mediumVisualizer signalWaveCount 20
par WirelessB2.visualizer.mediumVisualizer signalWaveLength 50m
attr unit m
par WirelessB2.visualizer.mediumVisualizer signalWaveWidth 10m
attr unit m
par WirelessB2.visualizer.mediumVisualizer signalWaveFadingAnimationSpeedFactor 1
par WirelessB2.visualizer.mediumVisualizer displayCommunicationHeat false
par WirelessB2.visualizer.obstacleLossVisualizer typename "\"inet.visualizer.canvas.physicallayer.TracingObstacleLossCanvasVisualizer\""
par WirelessB2.visualizer.obstacleLossVisualizer displayStringTextFormat "\"\""
attr mutable ""
par WirelessB2.visualizer.obstacleLossVisualizer visualizationTargetModule "\"^.^\""
par WirelessB2.visualizer.obstacleLossVisualizer visualizationSubjectModule "\"^.^\""
par WirelessB2.visualizer.obstacleLossVisualizer tags "\"\""
par WirelessB2.visualizer.obstacleLossVisualizer displayIntersections false
par WirelessB2.visualizer.obstacleLossVisualizer intersectionLineColor "\"red\""
par WirelessB2.visualizer.obstacleLossVisualizer intersectionLineStyle "\"solid\""
par WirelessB2.visualizer.obstacleLossVisualizer intersectionLineWidth 1
par WirelessB2.visualizer.obstacleLossVisualizer displayFaceNormalVectors false
par WirelessB2.visualizer.obstacleLossVisualizer faceNormalLineColor "\"grey\""
par WirelessB2.visualizer.obstacleLossVisualizer faceNormalLineStyle "\"solid\""
par WirelessB2.visualizer.obstacleLossVisualizer faceNormalLineWidth 1
par WirelessB2.visualizer.obstacleLossVisualizer fadeOutMode "\"realTime\""
attr enum realTime,animationTime,simulationTime
par WirelessB2.visualizer.obstacleLossVisualizer fadeOutTime 1s
attr unit s
par WirelessB2.visualizer.obstacleLossVisualizer fadeOutAnimationSpeed 0
par WirelessB2.visualizer.obstacleLossVisualizer zIndex 0
par WirelessB2.visualizer.packetDropVisualizer typename "\"inet.visualizer.canvas.common.PacketDropCanvasVisualizer\""
par WirelessB2.visualizer.packetDropVisualizer displayStringTextFormat "\"\""
attr mutable ""
par WirelessB2.visualizer.packetDropVisualizer visualizationTargetModule "\"^.^\""
par WirelessB2.visualizer.packetDropVisualizer visualizationSubjectModule "\"^.^\""
par WirelessB2.visualizer.packetDropVisualizer tags "\"\""
par WirelessB2.visualizer.packetDropVisualizer displayPacketDrops false
par WirelessB2.visualizer.packetDropVisualizer nodeFilter "\"*\""
attr mutable ""
par WirelessB2.visualizer.packetDropVisualizer interfaceFilter "\"*\""
attr mutable ""
par WirelessB2.visualizer.packetDropVisualizer packetFilter "(omnetpp::cValueHolder)holder: \"*\""
attr mutable ""
par WirelessB2.visualizer.packetDropVisualizer detailsFilter "\"*\""
attr mutable ""
par WirelessB2.visualizer.packetDropVisualizer icon "\"msg/packet_s\""
par WirelessB2.visualizer.packetDropVisualizer iconTintAmount 1
par WirelessB2.visualizer.packetDropVisualizer iconTintColor "\"dark\""
par WirelessB2.visualizer.packetDropVisualizer labelFormat "\"%n\""
attr mutable ""
par WirelessB2.visualizer.packetDropVisualizer labelFont "\"<default>\""
par WirelessB2.visualizer.packetDropVisualizer labelColor "\"black\""
par WirelessB2.visualizer.packetDropVisualizer fadeOutMode "\"realTime\""
attr enum realTime,animationTime,simulationTime
par WirelessB2.visualizer.packetDropVisualizer fadeOutTime 1s
attr unit s
par WirelessB2.visualizer.packetDropVisualizer fadeOutAnimationSpeed 0
par WirelessB2.visualizer.packetDropVisualizer zIndex 10
par WirelessB2.visualizer.packetDropVisualizer dx 32
par WirelessB2.visualizer.packetDropVisualizer dy 64
par WirelessB2.visualizer.packetFlowVisualizer typename "\"inet.visualizer.canvas.flow.PacketFlowCanvasVisualizer\""
par WirelessB2.visualizer.packetFlowVisualizer displayStringTextFormat "\"\""
attr mutable ""
par WirelessB2.visualizer.packetFlowVisualizer visualizationTargetModule "\"^.^\""
par WirelessB2.visualizer.packetFlowVisualizer visualizationSubjectModule "\"^.^\""
par WirelessB2.visualizer.packetFlowVisualizer tags "\"\""
par WirelessB2.visualizer.packetFlowVisualizer displayRoutes false
par WirelessB2.visualizer.packetFlowVisualizer startPathSignal "\"packetFlowStarted\""
par WirelessB2.visualizer.packetFlowVisualizer extendPathSignal "\"packetReceivedFromLower\""
par WirelessB2.visualizer.packetFlowVisualizer endPathSignal "\"packetFlowEnded\""
par WirelessB2.visualizer.packetFlowVisualizer nodeFilter "\"*\""
attr mutable ""
par WirelessB2.visualizer.packetFlowVisualizer packetFilter "(omnetpp::cValueHolder)holder: \"*\""
attr mutable ""
par WirelessB2.visualizer.packetFlowVisualizer lineColor "\"dark\""
par WirelessB2.visualizer.packetFlowVisualizer lineStyle "\"dashed\""
par WirelessB2.visualizer.packetFlowVisualizer lineWidth 3
par WirelessB2.visualizer.packetFlowVisualizer lineSmooth false
par WirelessB2.visualizer.packetFlowVisualizer lineShift 16
par WirelessB2.visualizer.packetFlowVisualizer lineShiftMode "\"normal\""
par WirelessB2.visualizer.packetFlowVisualizer lineContactSpacing 3
par WirelessB2.visualizer.packetFlowVisualizer lineContactMode "\"rectangular\""
attr enum circular,rectangular
par WirelessB2.visualizer.packetFlowVisualizer labelFormat "\"%L %p pk (%l)\""
par WirelessB2.visualizer.packetFlowVisualizer labelFont "\"<default>, 8px\""
par WirelessB2.visualizer.packetFlowVisualizer labelColor "\"\""
par WirelessB2.visualizer.packetFlowVisualizer fadeOutMode "\"realTime\""
attr enum realTime,animationTime,simulationTime
par WirelessB2.visualizer.packetFlowVisualizer fadeOutTime 0s
attr unit s
par WirelessB2.visualizer.packetFlowVisualizer fadeOutAnimationSpeed 0
par WirelessB2.visualizer.packetFlowVisualizer zIndex 4
par WirelessB2.visualizer.queueVisualizer typename "\"inet.visualizer.canvas.common.QueueCanvasVisualizer\""
par WirelessB2.visualizer.queueVisualizer displayStringTextFormat "\"\""
attr mutable ""
par WirelessB2.visualizer.queueVisualizer visualizationTargetModule "\"^.^\""
par WirelessB2.visualizer.queueVisualizer visualizationSubjectModule "\"^.^\""
par WirelessB2.visualizer.queueVisualizer tags "\"\""
par WirelessB2.visualizer.queueVisualizer networkNodeVisualizerModule "\"^.networkNodeVisualizer\""
par WirelessB2.visualizer.queueVisualizer displayQueues false
par WirelessB2.visualizer.queueVisualizer queueFilter "\"**\""
par WirelessB2.visualizer.queueVisualizer color "\"blue\""
par WirelessB2.visualizer.queueVisualizer width 8
par WirelessB2.visualizer.queueVisualizer height 24
par WirelessB2.visualizer.queueVisualizer spacing 2
par WirelessB2.visualizer.queueVisualizer placementHint "\"right\""
par WirelessB2.visualizer.queueVisualizer placementPriority 0
par WirelessB2.visualizer.queueVisualizer zIndex 10
par WirelessB2.visualizer.gateScheduleVisualizer typename "\"inet.visualizer.canvas.common.GateScheduleCanvasVisualizer\""
par WirelessB2.visualizer.gateScheduleVisualizer displayStringTextFormat "\"\""
attr mutable ""
par WirelessB2.visualizer.gateScheduleVisualizer visualizationTargetModule "\"^.^\""
par WirelessB2.visualizer.gateScheduleVisualizer visualizationSubjectModule "\"^.^\""
par WirelessB2.visualizer.gateScheduleVisualizer tags "\"\""
par WirelessB2.visualizer.gateScheduleVisualizer networkNodeVisualizerModule "\"^.networkNodeVisualizer\""
par WirelessB2.visualizer.gateScheduleVisualizer displayGateSchedules false
par WirelessB2.visualizer.gateScheduleVisualizer labelFormat "\"%i %D\""
par WirelessB2.visualizer.gateScheduleVisualizer gateFilter "\"**\""
par WirelessB2.visualizer.gateScheduleVisualizer width 100
par WirelessB2.visualizer.gateScheduleVisualizer height 8
par WirelessB2.visualizer.gateScheduleVisualizer spacing 2
par WirelessB2.visualizer.gateScheduleVisualizer placementHint "\"right\""
par WirelessB2.visualizer.gateScheduleVisualizer placementPriority 0
par WirelessB2.visualizer.gateScheduleVisualizer displayDuration 0s
attr mutable ""
attr unit s
par WirelessB2.visualizer.gateScheduleVisualizer currentTimePosition 50
par WirelessB2.visualizer.gateScheduleVisualizer zIndex 10
par WirelessB2.visualizer.radioVisualizer typename "\"inet.visualizer.canvas.physicallayer.RadioCanvasVisualizer\""
par WirelessB2.visualizer.radioVisualizer displayStringTextFormat "\"\""
attr mutable ""
par WirelessB2.visualizer.radioVisualizer visualizationTargetModule "\"^.^\""
par WirelessB2.visualizer.radioVisualizer visualizationSubjectModule "\"^.^\""
par WirelessB2.visualizer.radioVisualizer tags "\"\""
par WirelessB2.visualizer.radioVisualizer networkNodeVisualizerModule "\"^.networkNodeVisualizer\""
par WirelessB2.visualizer.radioVisualizer displayRadios false
par WirelessB2.visualizer.radioVisualizer displayRadioMode true
par WirelessB2.visualizer.radioVisualizer displayReceptionState true
par WirelessB2.visualizer.radioVisualizer displayTransmissionState true
par WirelessB2.visualizer.radioVisualizer displayAntennaLobes false
par WirelessB2.visualizer.radioVisualizer radioFilter "\"**\""
attr mutable ""
par WirelessB2.visualizer.radioVisualizer radioModeImages "\"block/process_vs block/timer_vs block/wrx_vs block/wtx_vs block/wrxtx_vs block/cogwheel_vs\""
par WirelessB2.visualizer.radioVisualizer receptionStateImages "\"- - misc/receiving misc/receiving\""
par WirelessB2.visualizer.radioVisualizer transmissionStateImages "\"- - misc/transmitting\""
par WirelessB2.visualizer.radioVisualizer width 16
par WirelessB2.visualizer.radioVisualizer height 16
par WirelessB2.visualizer.radioVisualizer placementHint "\"bottomRight\""
par WirelessB2.visualizer.radioVisualizer placementPriority 0
par WirelessB2.visualizer.radioVisualizer antennaLobeNormalize false
par WirelessB2.visualizer.radioVisualizer antennaLobeRelativeLabels false
par WirelessB2.visualizer.radioVisualizer antennaLobePlaneGlobal true
par WirelessB2.visualizer.radioVisualizer antennaLobePlane "\"view\""
attr enum view,xy,xz,yz
par WirelessB2.visualizer.radioVisualizer antennaLobeMode "\"logarithmic\""
attr enum logarithmic,linear
par WirelessB2.visualizer.radioVisualizer antennaLobeLogarithmicBase 10
par WirelessB2.visualizer.radioVisualizer antennaLobeLogarithmicScale 100
par WirelessB2.visualizer.radioVisualizer antennaLobeRadius 100
par WirelessB2.visualizer.radioVisualizer antennaLobeStep 10deg
attr unit deg
par WirelessB2.visualizer.radioVisualizer antennaLobeOpacity 0.25
par WirelessB2.visualizer.radioVisualizer antennaLobeLineSmooth true
par WirelessB2.visualizer.radioVisualizer antennaLobeLineColor "\"black\""
par WirelessB2.visualizer.radioVisualizer antennaLobeLineStyle "\"solid\""
par WirelessB2.visualizer.radioVisualizer antennaLobeLineWidth 1
par WirelessB2.visualizer.radioVisualizer antennaLobeFillColor "\"white\""
par WirelessB2.visualizer.radioVisualizer zIndex 10
par WirelessB2.visualizer.physicalLinkVisualizer typename "\"inet.visualizer.canvas.physicallayer.PhysicalLinkCanvasVisualizer\""
par WirelessB2.visualizer.physicalLinkVisualizer displayStringTextFormat "\"\""
attr mutable ""
par WirelessB2.visualizer.physicalLinkVisualizer visualizationTargetModule "\"^.^\""
par WirelessB2.visualizer.physicalLinkVisualizer visualizationSubjectModule "\"^.^\""
par WirelessB2.visualizer.physicalLinkVisualizer tags "\"\""
par WirelessB2.visualizer.physicalLinkVisualizer displayLinks true
par WirelessB2.visualizer.physicalLinkVisualizer activityLevel "\"service\""
attr enum service,peer,protocol
par WirelessB2.visualizer.physicalLinkVisualizer nodeFilter "\"*\""
attr mutable ""
par WirelessB2.visualizer.physicalLinkVisualizer interfaceFilter "\"*\""
attr mutable ""
par WirelessB2.visualizer.physicalLinkVisualizer packetFilter "(omnetpp::cValueHolder)holder: \"UDPData*\""
attr mutable ""
par WirelessB2.visualizer.physicalLinkVisualizer lineColor "\"olive\""
par WirelessB2.visualizer.physicalLinkVisualizer lineStyle "\"dotted\""
par WirelessB2.visualizer.physicalLinkVisualizer lineWidth 3
par WirelessB2.visualizer.physicalLinkVisualizer lineShift 0
par WirelessB2.visualizer.physicalLinkVisualizer lineShiftMode "\"normal\""
par WirelessB2.visualizer.physicalLinkVisualizer lineContactSpacing 3
par WirelessB2.visualizer.physicalLinkVisualizer lineContactMode "\"rectangular\""
attr enum circular,rectangular
par WirelessB2.visualizer.physicalLinkVisualizer labelFormat "\"%n\""
par WirelessB2.visualizer.physicalLinkVisualizer labelFont "\"<default>, 8px\""
par WirelessB2.visualizer.physicalLinkVisualizer labelColor "\"olive\""
par WirelessB2.visualizer.physicalLinkVisualizer fadeOutMode "\"realTime\""
attr enum realTime,animationTime,simulationTime
par WirelessB2.visualizer.physicalLinkVisualizer fadeOutTime 1s
attr unit s
par WirelessB2.visualizer.physicalLinkVisualizer fadeOutAnimationSpeed 0
par WirelessB2.visualizer.physicalLinkVisualizer holdAnimationTime 0s
attr unit s
par WirelessB2.visualizer.physicalLinkVisualizer zIndex 1
par WirelessB2.visualizer.interfaceTableVisualizer typename "\"inet.visualizer.canvas.linklayer.InterfaceTableCanvasVisualizer\""
par WirelessB2.visualizer.interfaceTableVisualizer displayStringTextFormat "\"\""
attr mutable ""
par WirelessB2.visualizer.interfaceTableVisualizer visualizationTargetModule "\"^.^\""
par WirelessB2.visualizer.interfaceTableVisualizer visualizationSubjectModule "\"^.^\""
par WirelessB2.visualizer.interfaceTableVisualizer tags "\"\""
par WirelessB2.visualizer.interfaceTableVisualizer networkNodeVisualizerModule "\"^.networkNodeVisualizer\""
par WirelessB2.visualizer.interfaceTableVisualizer displayInterfaceTables false
par WirelessB2.visualizer.interfaceTableVisualizer displayWiredInterfacesAtConnections true
par WirelessB2.visualizer.interfaceTableVisualizer displayBackground false
par WirelessB2.visualizer.interfaceTableVisualizer nodeFilter "\"*\""
attr mutable ""
par WirelessB2.visualizer.interfaceTableVisualizer interfaceFilter "\"not(lo*)\""
attr mutable ""
par WirelessB2.visualizer.interfaceTableVisualizer format "\"%N %\\\\%a%/%l\""
attr mutable ""
par WirelessB2.visualizer.interfaceTableVisualizer placementHint "\"top\""
par WirelessB2.visualizer.interfaceTableVisualizer placementPriority 0
par WirelessB2.visualizer.interfaceTableVisualizer font "\"<default>\""
par WirelessB2.visualizer.interfaceTableVisualizer textColor "\"#005030\""
par WirelessB2.visualizer.interfaceTableVisualizer backgroundColor "\"white\""
par WirelessB2.visualizer.interfaceTableVisualizer opacity 1
par WirelessB2.visualizer.interfaceTableVisualizer zIndex 10
par WirelessB2.visualizer.interfaceTableVisualizer anchor "\"l\""
attr enum l,r,t
par WirelessB2.visualizer.dataLinkVisualizer typename "\"inet.visualizer.canvas.linklayer.DataLinkCanvasVisualizer\""
par WirelessB2.visualizer.dataLinkVisualizer displayStringTextFormat "\"\""
attr mutable ""
par WirelessB2.visualizer.dataLinkVisualizer visualizationTargetModule "\"^.^\""
par WirelessB2.visualizer.dataLinkVisualizer visualizationSubjectModule "\"^.^\""
par WirelessB2.visualizer.dataLinkVisualizer tags "\"\""
par WirelessB2.visualizer.dataLinkVisualizer displayLinks true
par WirelessB2.visualizer.dataLinkVisualizer activityLevel "\"service\""
attr enum service,peer,protocol
par WirelessB2.visualizer.dataLinkVisualizer nodeFilter "\"*\""
attr mutable ""
par WirelessB2.visualizer.dataLinkVisualizer interfaceFilter "\"*\""
attr mutable ""
par WirelessB2.visualizer.dataLinkVisualizer packetFilter "(omnetpp::cValueHolder)holder: \"AODV*\""
attr mutable ""
par WirelessB2.visualizer.dataLinkVisualizer lineColor "\"darkcyan\""
par WirelessB2.visualizer.dataLinkVisualizer lineStyle "\"solid\""
par WirelessB2.visualizer.dataLinkVisualizer lineWidth 3
par WirelessB2.visualizer.dataLinkVisualizer lineShift 0
par WirelessB2.visualizer.dataLinkVisualizer lineShiftMode "\"normal\""
par WirelessB2.visualizer.dataLinkVisualizer lineContactSpacing 3
par WirelessB2.visualizer.dataLinkVisualizer lineContactMode "\"rectangular\""
attr enum circular,rectangular
par WirelessB2.visualizer.dataLinkVisualizer labelFormat "\"%n\""
par WirelessB2.visualizer.dataLinkVisualizer labelFont "\"<default>, 8px\""
par WirelessB2.visualizer.dataLinkVisualizer labelColor "\"darkcyan\""
par WirelessB2.visualizer.dataLinkVisualizer fadeOutMode "\"realTime\""
attr enum realTime,animationTime,simulationTime
par WirelessB2.visualizer.dataLinkVisualizer fadeOutTime 1s
attr unit s
par WirelessB2.visualizer.dataLinkVisualizer fadeOutAnimationSpeed 0
par WirelessB2.visualizer.dataLinkVisualizer holdAnimationTime 0s
attr unit s
par WirelessB2.visualizer.dataLinkVisualizer zIndex 2
par WirelessB2.visualizer.linkBreakVisualizer typename "\"inet.visualizer.canvas.linklayer.LinkBreakCanvasVisualizer\""
par WirelessB2.visualizer.linkBreakVisualizer displayStringTextFormat "\"\""
attr mutable ""
par WirelessB2.visualizer.linkBreakVisualizer visualizationTargetModule "\"^.^\""
par WirelessB2.visualizer.linkBreakVisualizer visualizationSubjectModule "\"^.^\""
par WirelessB2.visualizer.linkBreakVisualizer tags "\"\""
par WirelessB2.visualizer.linkBreakVisualizer displayLinkBreaks false
par WirelessB2.visualizer.linkBreakVisualizer nodeFilter "\"*\""
attr mutable ""
par WirelessB2.visualizer.linkBreakVisualizer interfaceFilter "\"*\""
attr mutable ""
par WirelessB2.visualizer.linkBreakVisualizer packetFilter "(omnetpp::cValueHolder)holder: \"*\""
attr mutable ""
par WirelessB2.visualizer.linkBreakVisualizer icon "\"status/stop\""
par WirelessB2.visualizer.linkBreakVisualizer iconTintAmount 0
par WirelessB2.visualizer.linkBreakVisualizer iconTintColor "\"\""
par WirelessB2.visualizer.linkBreakVisualizer fadeOutMode "\"realTime\""
attr enum realTime,animationTime,simulationTime
par WirelessB2.visualizer.linkBreakVisualizer fadeOutTime 1s
attr unit s
par WirelessB2.visualizer.linkBreakVisualizer fadeOutAnimationSpeed 0
par WirelessB2.visualizer.linkBreakVisualizer zIndex 2
par WirelessB2.visualizer.ieee80211Visualizer typename "\"inet.visualizer.canvas.linklayer.Ieee80211CanvasVisualizer\""
par WirelessB2.visualizer.ieee80211Visualizer displayStringTextFormat "\"\""
attr mutable ""
par WirelessB2.visualizer.ieee80211Visualizer visualizationTargetModule "\"^.^\""
par WirelessB2.visualizer.ieee80211Visualizer visualizationSubjectModule "\"^.^\""
par WirelessB2.visualizer.ieee80211Visualizer tags "\"\""
par WirelessB2.visualizer.ieee80211Visualizer networkNodeVisualizerModule "\"^.networkNodeVisualizer\""
par WirelessB2.visualizer.ieee80211Visualizer displayAssociations false
par WirelessB2.visualizer.ieee80211Visualizer nodeFilter "\"*\""
attr mutable ""
par WirelessB2.visualizer.ieee80211Visualizer interfaceFilter "\"*\""
attr mutable ""
par WirelessB2.visualizer.ieee80211Visualizer minPower -85dBm
attr unit dBm
par WirelessB2.visualizer.ieee80211Visualizer maxPower -50dBm
attr unit dBm
par WirelessB2.visualizer.ieee80211Visualizer icons "\"misc/signal_power_0 misc/signal_power_1 misc/signal_power_2 misc/signal_power_3\""
par WirelessB2.visualizer.ieee80211Visualizer iconColor "\"dark\""
par WirelessB2.visualizer.ieee80211Visualizer labelFont "\"<default>\""
par WirelessB2.visualizer.ieee80211Visualizer labelColor "\"black\""
par WirelessB2.visualizer.ieee80211Visualizer placementHint "\"top\""
par WirelessB2.visualizer.ieee80211Visualizer placementPriority 0
par WirelessB2.visualizer.ieee80211Visualizer zIndex 2
par WirelessB2.visualizer.networkRouteVisualizer typename "\"inet.visualizer.canvas.networklayer.NetworkRouteCanvasVisualizer\""
par WirelessB2.visualizer.networkRouteVisualizer displayStringTextFormat "\"\""
attr mutable ""
par WirelessB2.visualizer.networkRouteVisualizer visualizationTargetModule "\"^.^\""
par WirelessB2.visualizer.networkRouteVisualizer visualizationSubjectModule "\"^.^\""
par WirelessB2.visualizer.networkRouteVisualizer tags "\"\""
par WirelessB2.visualizer.networkRouteVisualizer displayRoutes true
par WirelessB2.visualizer.networkRouteVisualizer startPathSignal "\"packetReceivedFromUpper\""
par WirelessB2.visualizer.networkRouteVisualizer extendPathSignal "\"packetReceivedFromLower\""
par WirelessB2.visualizer.networkRouteVisualizer endPathSignal "\"packetSentToUpper\""
par WirelessB2.visualizer.networkRouteVisualizer nodeFilter "\"*\""
attr mutable ""
par WirelessB2.visualizer.networkRouteVisualizer packetFilter "(omnetpp::cValueHolder)holder: \"UDPData*\""
attr mutable ""
par WirelessB2.visualizer.networkRouteVisualizer lineColor "\"dark\""
par WirelessB2.visualizer.networkRouteVisualizer lineStyle "\"solid\""
par WirelessB2.visualizer.networkRouteVisualizer lineWidth 3
par WirelessB2.visualizer.networkRouteVisualizer lineSmooth false
par WirelessB2.visualizer.networkRouteVisualizer lineShift 0
par WirelessB2.visualizer.networkRouteVisualizer lineShiftMode "\"normal\""
par WirelessB2.visualizer.networkRouteVisualizer lineContactSpacing 3
par WirelessB2.visualizer.networkRouteVisualizer lineContactMode "\"rectangular\""
attr enum circular,rectangular
par WirelessB2.visualizer.networkRouteVisualizer labelFormat "\"%n\""
par WirelessB2.visualizer.networkRouteVisualizer labelFont "\"<default>, 8px\""
par WirelessB2.visualizer.networkRouteVisualizer labelColor "\"\""
par WirelessB2.visualizer.networkRouteVisualizer fadeOutMode "\"realTime\""
attr enum realTime,animationTime,simulationTime
par WirelessB2.visualizer.networkRouteVisualizer fadeOutTime 1s
attr unit s
par WirelessB2.visualizer.networkRouteVisualizer fadeOutAnimationSpeed 0
par WirelessB2.visualizer.networkRouteVisualizer zIndex 3
par WirelessB2.visualizer.routingTableVisualizer typename "\"inet.visualizer.canvas.networklayer.RoutingTableCanvasVisualizer\""
par WirelessB2.visualizer.routingTableVisualizer displayStringTextFormat "\"\""
attr mutable ""
par WirelessB2.visualizer.routingTableVisualizer visualizationTargetModule "\"^.^\""
par WirelessB2.visualizer.routingTableVisualizer visualizationSubjectModule "\"^.^\""
par WirelessB2.visualizer.routingTableVisualizer tags "\"\""
par WirelessB2.visualizer.routingTableVisualizer displayRoutingTables false
par WirelessB2.visualizer.routingTableVisualizer displayRoutesIndividually true
par WirelessB2.visualizer.routingTableVisualizer displayLabels true
par WirelessB2.visualizer.routingTableVisualizer destinationFilter "\"*\""
attr mutable ""
par WirelessB2.visualizer.routingTableVisualizer nodeFilter "\"*\""
attr mutable ""
par WirelessB2.visualizer.routingTableVisualizer multicastSourceNodeFilter "\"*\""
attr mutable ""
par WirelessB2.visualizer.routingTableVisualizer multicastSourceAddressFilter "\"*\""
attr mutable ""
par WirelessB2.visualizer.routingTableVisualizer multicastGroupFilter "\"*\""
attr mutable ""
par WirelessB2.visualizer.routingTableVisualizer lineColor "\"black\""
par WirelessB2.visualizer.routingTableVisualizer lineStyle "\"solid\""
par WirelessB2.visualizer.routingTableVisualizer lineWidth 2
par WirelessB2.visualizer.routingTableVisualizer lineShift 16
par WirelessB2.visualizer.routingTableVisualizer lineShiftMode "\"normal\""
par WirelessB2.visualizer.routingTableVisualizer lineContactSpacing 3
par WirelessB2.visualizer.routingTableVisualizer lineContactMode "\"rectangular\""
attr enum circular,rectangular
par WirelessB2.visualizer.routingTableVisualizer labelFormat "\"%d/%m -> %g (%n)\""
attr mutable ""
par WirelessB2.visualizer.routingTableVisualizer labelFont "\"<default>, 8px\""
par WirelessB2.visualizer.routingTableVisualizer labelColor "\"black\""
par WirelessB2.visualizer.routingTableVisualizer zIndex 0
par WirelessB2.visualizer.transportRouteVisualizer typename "\"inet.visualizer.canvas.transportlayer.TransportRouteCanvasVisualizer\""
par WirelessB2.visualizer.transportRouteVisualizer displayStringTextFormat "\"\""
attr mutable ""
par WirelessB2.visualizer.transportRouteVisualizer visualizationTargetModule "\"^.^\""
par WirelessB2.visualizer.transportRouteVisualizer visualizationSubjectModule "\"^.^\""
par WirelessB2.visualizer.transportRouteVisualizer tags "\"\""
par WirelessB2.visualizer.transportRouteVisualizer displayRoutes false
par WirelessB2.visualizer.transportRouteVisualizer startPathSignal "\"packetReceivedFromUpper\""
par WirelessB2.visualizer.transportRouteVisualizer extendPathSignal "\"packetReceivedFromLower\""
par WirelessB2.visualizer.transportRouteVisualizer endPathSignal "\"packetSentToUpper\""
par WirelessB2.visualizer.transportRouteVisualizer nodeFilter "\"*\""
attr mutable ""
par WirelessB2.visualizer.transportRouteVisualizer packetFilter "(omnetpp::cValueHolder)holder: \"*\""
attr mutable ""
par WirelessB2.visualizer.transportRouteVisualizer lineColor "\"dark\""
par WirelessB2.visualizer.transportRouteVisualizer lineStyle "\"solid\""
par WirelessB2.visualizer.transportRouteVisualizer lineWidth 3
par WirelessB2.visualizer.transportRouteVisualizer lineSmooth false
par WirelessB2.visualizer.transportRouteVisualizer lineShift 16
par WirelessB2.visualizer.transportRouteVisualizer lineShiftMode "\"normal\""
par WirelessB2.visualizer.transportRouteVisualizer lineContactSpacing 3
par WirelessB2.visualizer.transportRouteVisualizer lineContactMode "\"rectangular\""
attr enum circular,rectangular
par WirelessB2.visualizer.transportRouteVisualizer labelFormat "\"%n\""
par WirelessB2.visualizer.transportRouteVisualizer labelFont "\"<default>, 8px\""
par WirelessB2.visualizer.transportRouteVisualizer labelColor "\"\""
par WirelessB2.visualizer.transportRouteVisualizer fadeOutMode "\"realTime\""
attr enum realTime,animationTime,simulationTime
par WirelessB2.visualizer.transportRouteVisualizer fadeOutTime 1s
attr unit s
par WirelessB2.visualizer.transportRouteVisualizer fadeOutAnimationSpeed 0
par WirelessB2.visualizer.transportRouteVisualizer zIndex 4
par WirelessB2.visualizer.transportConnectionVisualizer typename "\"inet.visualizer.canvas.transportlayer.TransportConnectionCanvasVisualizer\""
par WirelessB2.visualizer.transportConnectionVisualizer displayStringTextFormat "\"\""
attr mutable ""
par WirelessB2.visualizer.transportConnectionVisualizer visualizationTargetModule "\"^.^\""
par WirelessB2.visualizer.transportConnectionVisualizer visualizationSubjectModule "\"^.^\""
par WirelessB2.visualizer.transportConnectionVisualizer tags "\"\""
par WirelessB2.visualizer.transportConnectionVisualizer networkNodeVisualizerModule "\"^.networkNodeVisualizer\""
par WirelessB2.visualizer.transportConnectionVisualizer displayTransportConnections false
par WirelessB2.visualizer.transportConnectionVisualizer sourceNodeFilter "\"*\""
attr mutable ""
par WirelessB2.visualizer.transportConnectionVisualizer sourcePortFilter "\"*\""
attr mutable ""
par WirelessB2.visualizer.transportConnectionVisualizer destinationNodeFilter "\"*\""
attr mutable ""
par WirelessB2.visualizer.transportConnectionVisualizer destinationPortFilter "\"*\""
attr mutable ""
par WirelessB2.visualizer.transportConnectionVisualizer icon "\"misc/marker_s\""
par WirelessB2.visualizer.transportConnectionVisualizer iconColor "\"dark\""
par WirelessB2.visualizer.transportConnectionVisualizer labelFont "\"<default>\""
par WirelessB2.visualizer.transportConnectionVisualizer labelColor "\"black\""
par WirelessB2.visualizer.transportConnectionVisualizer placementHint "\"top\""
par WirelessB2.visualizer.transportConnectionVisualizer placementPriority 0
par WirelessB2.visualizer.transportConnectionVisualizer zIndex 4
par WirelessB2.visualizer.failureProtectionConfigurationVisualizer typename "\"inet.visualizer.canvas.configurator.FailureProtectionConfigurationCanvasVisualizer\""
par WirelessB2.visualizer.failureProtectionConfigurationVisualizer displayStringTextFormat "\"\""
attr mutable ""
par WirelessB2.visualizer.failureProtectionConfigurationVisualizer visualizationTargetModule "\"^.^\""
par WirelessB2.visualizer.failureProtectionConfigurationVisualizer visualizationSubjectModule "\"^.^\""
par WirelessB2.visualizer.failureProtectionConfigurationVisualizer tags "\"\""
par WirelessB2.visualizer.failureProtectionConfigurationVisualizer displayTrees false
par WirelessB2.visualizer.failureProtectionConfigurationVisualizer lineColor "\"dark\""
par WirelessB2.visualizer.failureProtectionConfigurationVisualizer lineStyle "\"solid\""
par WirelessB2.visualizer.failureProtectionConfigurationVisualizer lineWidth 3
par WirelessB2.visualizer.failureProtectionConfigurationVisualizer lineSmooth false
par WirelessB2.visualizer.failureProtectionConfigurationVisualizer lineShift 16
par WirelessB2.visualizer.failureProtectionConfigurationVisualizer lineShiftMode "\"normal\""
par WirelessB2.visualizer.failureProtectionConfigurationVisualizer lineContactSpacing 3
par WirelessB2.visualizer.failureProtectionConfigurationVisualizer lineContactMode "\"rectangular\""
attr enum circular,rectangular
par WirelessB2.visualizer.failureProtectionConfigurationVisualizer failureProtectionConfiguratorModule "\"failureProtectionConfigurator\""
par WirelessB2.visualizer.failureProtectionConfigurationVisualizer streamFilter "\"*\""
par WirelessB2.visualizer.failureProtectionConfigurationVisualizer zIndex 3
par WirelessB2.visualizer.streamRedundancyConfigurationVisualizer typename "\"inet.visualizer.canvas.configurator.StreamRedundancyConfigurationCanvasVisualizer\""
par WirelessB2.visualizer.streamRedundancyConfigurationVisualizer displayStringTextFormat "\"\""
attr mutable ""
par WirelessB2.visualizer.streamRedundancyConfigurationVisualizer visualizationTargetModule "\"^.^\""
par WirelessB2.visualizer.streamRedundancyConfigurationVisualizer visualizationSubjectModule "\"^.^\""
par WirelessB2.visualizer.streamRedundancyConfigurationVisualizer tags "\"\""
par WirelessB2.visualizer.streamRedundancyConfigurationVisualizer displayTrees false
par WirelessB2.visualizer.streamRedundancyConfigurationVisualizer lineColor "\"dark\""
par WirelessB2.visualizer.streamRedundancyConfigurationVisualizer lineStyle "\"solid\""
par WirelessB2.visualizer.streamRedundancyConfigurationVisualizer lineWidth 3
par WirelessB2.visualizer.streamRedundancyConfigurationVisualizer lineSmooth false
par WirelessB2.visualizer.streamRedundancyConfigurationVisualizer lineShift 16
par WirelessB2.visualizer.streamRedundancyConfigurationVisualizer lineShiftMode "\"normal\""
par WirelessB2.visualizer.streamRedundancyConfigurationVisualizer lineContactSpacing 3
par WirelessB2.visualizer.streamRedundancyConfigurationVisualizer lineContactMode "\"rectangular\""
attr enum circular,rectangular
par WirelessB2.visualizer.streamRedundancyConfigurationVisualizer streamRedundancyConfiguratorModule "\"streamRedundancyConfigurator\""
par WirelessB2.visualizer.streamRedundancyConfigurationVisualizer streamFilter "\"*\""
par WirelessB2.visualizer.streamRedundancyConfigurationVisualizer zIndex 3
par WirelessB2.visualizer.channelVisualizer typename "\"inet.visualizer.canvas.physicallayer.ChannelCanvasVisualizer\""
par WirelessB2.visualizer.channelVisualizer displayStringTextFormat "\"\""
attr mutable ""
par WirelessB2.visualizer.channelVisualizer visualizationTargetModule "\"^.^\""
par WirelessB2.visualizer.channelVisualizer visualizationSubjectModule "\"^.^\""
par WirelessB2.visualizer.channelVisualizer tags "\"\""
par WirelessB2.visualizer.channelVisualizer displayChannelActivity false
par WirelessB2.visualizer.channelVisualizer nodeFilter "\"*\""
attr mutable ""
par WirelessB2.visualizer.channelVisualizer packetFilter "(omnetpp::cValueHolder)holder: \"*\""
attr mutable ""
par WirelessB2.visualizer.channelVisualizer lineColor "\"blue\""
par WirelessB2.visualizer.channelVisualizer lineStyle "\"solid\""
par WirelessB2.visualizer.channelVisualizer lineWidth 3
par WirelessB2.visualizer.channelVisualizer lineShift 16
par WirelessB2.visualizer.channelVisualizer lineShiftMode "\"normal\""
par WirelessB2.visualizer.channelVisualizer lineContactSpacing 3
par WirelessB2.visualizer.channelVisualizer lineContactMode "\"rectangular\""
attr enum circular,rectangular
par WirelessB2.visualizer.channelVisualizer labelFormat "\"%n\""
par WirelessB2.visualizer.channelVisualizer labelFont "\"<default>, 8px\""
par WirelessB2.visualizer.channelVisualizer labelColor "\"blue\""
par WirelessB2.visualizer.channelVisualizer fadeOutMode "\"realTime\""
attr enum realTime,animationTime,simulationTime
par WirelessB2.visualizer.channelVisualizer fadeOutTime 1s
attr unit s
par WirelessB2.visualizer.channelVisualizer fadeOutAnimationSpeed 0
par WirelessB2.visualizer.channelVisualizer holdAnimationTime 0s
attr unit s
par WirelessB2.visualizer.channelVisualizer zIndex 1
par WirelessB2.visualizer typename "\"inet.visualizer.canvas.integrated.IntegratedCanvasVisualizer\""
par WirelessB2.configurator typename "\"inet.networklayer.configurator.ipv4.Ipv4NetworkConfigurator\""
par WirelessB2.configurator displayStringTextFormat "\"\""
attr mutable ""
par WirelessB2.configurator minLinkWeight 0.001
par WirelessB2.configurator configureIsolatedNetworksSeparatly false
par WirelessB2.configurator config "<config>...</config> at content:1"
par WirelessB2.configurator assignAddresses true
par WirelessB2.configurator assignUniqueAddresses true
par WirelessB2.configurator assignDisjunctSubnetAddresses true
par WirelessB2.configurator addStaticRoutes false
par WirelessB2.configurator addDefaultRoutes true
par WirelessB2.configurator addSubnetRoutes true
par WirelessB2.configurator addDirectRoutes true
par WirelessB2.configurator optimizeRoutes false
par WirelessB2.configurator updateRoutes false
par WirelessB2.configurator dumpTopology false
par WirelessB2.configurator dumpLinks false
par WirelessB2.configurator dumpAddresses false
par WirelessB2.configurator dumpRoutes false
par WirelessB2.configurator dumpConfig "\"\""
par WirelessB2.radioMedium.propagation typename "\"inet.physicallayer.wireless.common.propagation.ConstantSpeedPropagation\""
par WirelessB2.radioMedium.propagation displayStringTextFormat "\"\""
attr mutable ""
par WirelessB2.radioMedium.propagation propagationSpeed 2.99792e+08mps
attr unit mps
par WirelessB2.radioMedium.propagation ignoreMovementDuringTransmission true
par WirelessB2.radioMedium.propagation ignoreMovementDuringPropagation true
par WirelessB2.radioMedium.propagation ignoreMovementDuringReception true
scalar WirelessB2.radioMedium.propagation "Arrival computation count" 992
par WirelessB2.radioMedium.analogModel typename "\"inet.physicallayer.wireless.common.analogmodel.unitdisk.UnitDiskMediumAnalogModel\""
par WirelessB2.radioMedium.analogModel displayStringTextFormat "\"\""
attr mutable ""
par WirelessB2.radioMedium.pathLoss typename "\"inet.physicallayer.wireless.common.pathloss.FreeSpacePathLoss\""
par WirelessB2.radioMedium.pathLoss displayStringTextFormat "\"\""
attr mutable ""
par WirelessB2.radioMedium.pathLoss alpha 2
par WirelessB2.radioMedium.pathLoss systemLoss 0dB
attr unit dB
par WirelessB2.radioMedium.mediumLimitCache typename "\"inet.physicallayer.wireless.common.medium.MediumLimitCache\""
par WirelessB2.radioMedium.mediumLimitCache displayStringTextFormat "\"\""
attr mutable ""
par WirelessB2.radioMedium.mediumLimitCache centerFrequency "nan Hz"
attr unit Hz
par WirelessB2.radioMedium.mediumLimitCache maxSpeed "nan mps"
attr unit mps
par WirelessB2.radioMedium.mediumLimitCache maxTransmissionPower "nan W"
attr unit W
par WirelessB2.radioMedium.mediumLimitCache minInterferencePower "nan dBm"
attr unit dBm
par WirelessB2.radioMedium.mediumLimitCache minReceptionPower "nan dBm"
attr unit dBm
par WirelessB2.radioMedium.mediumLimitCache maxAntennaGain 0dB
attr unit dB
par WirelessB2.radioMedium.mediumLimitCache minInterferenceTime 1e-12s
attr unit s
par WirelessB2.radioMedium.mediumLimitCache maxTransmissionDuration 0.01s
attr unit s
par WirelessB2.radioMedium.mediumLimitCache maxCommunicationRange "nan m"
attr unit m
par WirelessB2.radioMedium.mediumLimitCache maxInterferenceRange "nan m"
attr unit m
par WirelessB2.radioMedium.communicationCache typename "\"inet.physicallayer.wireless.common.communicationcache.VectorCommunicationCache\""
par WirelessB2.radioMedium.communicationCache displayStringTextFormat "\"\""
attr mutable ""
par WirelessB2.radioMedium typename "\"inet.physicallayer.wireless.common.medium.RadioMedium\""
par WirelessB2.radioMedium displayStringTextFormat "\"\""
attr mutable ""
par WirelessB2.radioMedium physicalEnvironmentModule "\"physicalEnvironment\""
par WirelessB2.radioMedium signalAnalogRepresentation "\"unitDisk\""
attr enum unitDisk,scalar,dimensional
par WirelessB2.radioMedium rangeFilter "\"\""
par WirelessB2.radioMedium radioModeFilter false
par WirelessB2.radioMedium listeningFilter false
par WirelessB2.radioMedium macAddressFilter false
par WirelessB2.radioMedium recordTransmissionLog false
par WirelessB2.radioMedium recordReceptionLog false
par WirelessB2.radioMedium sameTransmissionStartTimeCheck "\"error\""
attr enum ignore,warning,error
scalar WirelessB2.radioMedium "transmission count" 248
scalar WirelessB2.radioMedium "signal send count" 992
scalar WirelessB2.radioMedium "reception computation count" 992
scalar WirelessB2.radioMedium "interference computation count" 3224
scalar WirelessB2.radioMedium "reception decision computation count" 287
scalar WirelessB2.radioMedium "listening decision computation count" 1947
scalar WirelessB2.radioMedium "reception cache hit" 79.478692594125
attr unit %
scalar WirelessB2.radioMedium "interference cache hit" 66.666666666667
attr unit %
scalar WirelessB2.radioMedium "noise cache hit" 0
attr unit %
scalar WirelessB2.radioMedium "snir cache hit" 50
attr unit %
scalar WirelessB2.radioMedium "reception decision cache hit" 50
attr unit %
scalar WirelessB2.radioMedium "reception result cache hit" 0
attr unit %
par WirelessB2.terrainLOS typename "\"terrainLOS\""
par WirelessB2.terrainLOS priority 0
par WirelessB2.terrainLOS east_width 600
par WirelessB2.terrainLOS south_width 600
par WirelessB2.terrainLOS east_offset 0
par WirelessB2.terrainLOS south_offset 0
par WirelessB2.hostA.radioIn[0].channel typename "\"ned.IdealChannel\""
par WirelessB2.hostA.energyStorage typename "\"inet.power.storage.IdealEpEnergyStorage\""
par WirelessB2.hostA.energyStorage displayStringTextFormat "\"\""
attr mutable ""
scalar WirelessB2.hostA.energyStorage residualEnergyCapacity:last -0.08476787664454
attr interpolationmode linear
attr recordingmode last
attr source residualEnergyCapacityChanged
attr title "Residual energy capacity, last"
attr unit J
par WirelessB2.hostA.mobility typename "\"inet.mobility.static.StationaryMobility\""
par WirelessB2.hostA.mobility displayStringTextFormat "\"p: %p\\nv: %v\""
attr mutable ""
par WirelessB2.hostA.mobility subjectModule "\"^\""
par WirelessB2.hostA.mobility coordinateSystemModule "\"\""
par WirelessB2.hostA.mobility updateDisplayString true
par WirelessB2.hostA.mobility constraintAreaMinX "-inf m"
attr unit m
par WirelessB2.hostA.mobility constraintAreaMinY "-inf m"
attr unit m
par WirelessB2.hostA.mobility constraintAreaMinZ "-inf m"
attr unit m
par WirelessB2.hostA.mobility constraintAreaMaxX "inf m"
attr unit m
par WirelessB2.hostA.mobility constraintAreaMaxY "inf m"
attr unit m
par WirelessB2.hostA.mobility constraintAreaMaxZ "inf m"
attr unit m
par WirelessB2.hostA.mobility initialX "nan m"
attr unit m
par WirelessB2.hostA.mobility initialY "nan m"
attr unit m
par WirelessB2.hostA.mobility initialZ 0m
attr unit m
par WirelessB2.hostA.mobility initialLatitude "nan deg"
attr unit deg
par WirelessB2.hostA.mobility initialLongitude "nan deg"
attr unit deg
par WirelessB2.hostA.mobility initialAltitude 0m
attr unit m
par WirelessB2.hostA.mobility initialHeading 0deg
attr unit deg
par WirelessB2.hostA.mobility initialElevation 0deg
attr unit deg
par WirelessB2.hostA.mobility initialBank 0deg
attr unit deg
par WirelessB2.hostA.mobility initFromDisplayString true
par WirelessB2.hostA.mobility updateFromDisplayString true
par WirelessB2.hostA.interfaceTable typename "\"inet.networklayer.common.InterfaceTable\""
par WirelessB2.hostA.interfaceTable displayStringTextFormat "\"\""
attr mutable ""
par WirelessB2.hostA.interfaceTable displayAddresses false
par WirelessB2.hostA.cb typename "\"inet.common.MessageDispatcher\""
par WirelessB2.hostA.cb displayStringTextFormat "\"processed %p pk (%l)\""
attr mutable ""
par WirelessB2.hostA.cb interfaceTableModule "\"WirelessB2.hostA.interfaceTable\""
par WirelessB2.hostA.cb forwardServiceRegistration true
par WirelessB2.hostA.cb forwardProtocolRegistration true
par WirelessB2.hostA.cb interfaceMapping {}
par WirelessB2.hostA.cb serviceMapping {}
par WirelessB2.hostA.cb protocolMapping {}
par WirelessB2.hostA.bl typename "\"inet.common.MessageDispatcher\""
par WirelessB2.hostA.bl displayStringTextFormat "\"processed %p pk (%l)\""
attr mutable ""
par WirelessB2.hostA.bl interfaceTableModule "\"WirelessB2.hostA.interfaceTable\""
par WirelessB2.hostA.bl forwardServiceRegistration true
par WirelessB2.hostA.bl forwardProtocolRegistration true
par WirelessB2.hostA.bl interfaceMapping {}
par WirelessB2.hostA.bl serviceMapping {}
par WirelessB2.hostA.bl protocolMapping {}
par WirelessB2.hostA.li typename "\"inet.common.MessageDispatcher\""
par WirelessB2.hostA.li displayStringTextFormat "\"processed %p pk (%l)\""
attr mutable ""
par WirelessB2.hostA.li interfaceTableModule "\"WirelessB2.hostA.interfaceTable\""
par WirelessB2.hostA.li forwardServiceRegistration true
par WirelessB2.hostA.li forwardProtocolRegistration true
par WirelessB2.hostA.li interfaceMapping {}
par WirelessB2.hostA.li serviceMapping {}
par WirelessB2.hostA.li protocolMapping {}
par WirelessB2.hostA.lo[0].upperLayerIn.channel typename "\"ned.IdealChannel\""
par WirelessB2.hostA.lo[0].lo.upperLayerOut.channel typename "\"ned.IdealChannel\""
par WirelessB2.hostA.lo[0].lo typename "\"inet.linklayer.loopback.Loopback\""
par WirelessB2.hostA.lo[0].lo displayStringTextFormat "\"\""
attr mutable ""
par WirelessB2.hostA.lo[0].lo interfaceTableModule "\"WirelessB2.hostA.interfaceTable\""
par WirelessB2.hostA.lo[0].lo mtu 4470B
attr unit B
scalar WirelessB2.hostA.lo[0].lo rcvdPkFromHl:count 0
attr interpolationmode none
attr recordingmode count
attr source packetReceivedFromUpper
attr title "packets received from higher layer, count"
scalar WirelessB2.hostA.lo[0].lo rcvdPkFromHl:sum(packetBytes) 0
attr interpolationmode none
attr recordingmode sum(packetBytes)
attr source packetReceivedFromUpper
attr title "packets received from higher layer, sum(packetBytes)"
scalar WirelessB2.hostA.lo[0].lo passedUpPk:count 0
attr interpolationmode none
attr recordingmode count
attr source packetSentToUpper
attr title "packets passed to higher layer, count"
scalar WirelessB2.hostA.lo[0].lo passedUpPk:sum(packetBytes) 0
attr interpolationmode none
attr recordingmode sum(packetBytes)
attr source packetSentToUpper
attr title "packets passed to higher layer, sum(packetBytes)"
par WirelessB2.hostA.lo[0] typename "\"inet.linklayer.loopback.LoopbackInterface\""
par WirelessB2.hostA.lo[0] displayStringTextFormat "\"%a (%i)\\n%m\""
attr mutable ""
par WirelessB2.hostA.lo[0] recordPcap false
par WirelessB2.hostA.lo[0] numPcapRecorders 0
par WirelessB2.hostA.lo[0] interfaceTableModule "\"WirelessB2.hostA.interfaceTable\""
scalar WirelessB2.hostA.lo[0] packetDropInterfaceDown:count 0
attr interpolationmode none
attr recordingmode count
attr source packetDropReasonIsInterfaceDown(packetDropped)
attr title "packet drops: interface down, count"
scalar WirelessB2.hostA.lo[0] packetDropInterfaceDown:sum(packetBytes) 0
attr interpolationmode none
attr recordingmode sum(packetBytes)
attr source packetDropReasonIsInterfaceDown(packetDropped)
attr title "packet drops: interface down, sum(packetBytes)"
scalar WirelessB2.hostA.lo[0] packetDropNoCarrier:count 0
attr interpolationmode none
attr recordingmode count
attr source packetDropReasonIsNoCarrier(packetDropped)
attr title "packet drops: no carrier, count"
scalar WirelessB2.hostA.lo[0] packetDropNoCarrier:sum(packetBytes) 0
attr interpolationmode none
attr recordingmode sum(packetBytes)
attr source packetDropReasonIsNoCarrier(packetDropped)
attr title "packet drops: no carrier, sum(packetBytes)"
par WirelessB2.hostA.wlan[0].radioIn.channel typename "\"ned.IdealChannel\""
par WirelessB2.hostA.wlan[0].mac.upperLayerOut.channel typename "\"ned.IdealChannel\""
par WirelessB2.hostA.wlan[0].upperLayerIn.channel typename "\"ned.IdealChannel\""
par WirelessB2.hostA.wlan[0].queue typename "\"inet.queueing.queue.DropTailQueue\""
par WirelessB2.hostA.wlan[0].queue displayStringTextFormat "\"contains %p pk (%l) pushed %u\\npulled %o removed %r dropped %d\""
attr mutable ""
par WirelessB2.hostA.wlan[0].queue packetCapacity 10
par WirelessB2.hostA.wlan[0].queue dataCapacity -1b
attr unit b
par WirelessB2.hostA.wlan[0].queue dropperClass "\"inet::queueing::PacketAtCollectionEndDropper\""
par WirelessB2.hostA.wlan[0].queue comparatorClass "\"\""
par WirelessB2.hostA.wlan[0].queue bufferModule "\"\""
scalar WirelessB2.hostA.wlan[0].queue queueLength:last 2
attr autoWarmupFilter false
attr interpolationmode sample-hold
attr recordingmode last
attr source "warmup(atomic(constant0(packetPushEnded) + count(packetPushStarted) - count(packetPulled) - count(packetRemoved) - count(packetDropped)))"
attr title "queue length, last"
attr unit pk
scalar WirelessB2.hostA.wlan[0].queue queueLength:max 10
attr autoWarmupFilter false
attr interpolationmode sample-hold
attr recordingmode max
attr source "warmup(atomic(constant0(packetPushEnded) + count(packetPushStarted) - count(packetPulled) - count(packetRemoved) - count(packetDropped)))"
attr title "queue length, max"
attr unit pk
scalar WirelessB2.hostA.wlan[0].queue queueLength:timeavg 3.0350008771006
attr autoWarmupFilter false
attr interpolationmode sample-hold
attr recordingmode timeavg
attr source "warmup(atomic(constant0(packetPushEnded) + count(packetPushStarted) - count(packetPulled) - count(packetRemoved) - count(packetDropped)))"
attr title "queue length, timeavg"
attr unit pk
scalar WirelessB2.hostA.wlan[0].queue queueBitLength:last 16448
attr autoWarmupFilter false
attr interpolationmode sample-hold
attr recordingmode last
attr source "warmup(atomic(constant0(packetPushEnded) + sum(packetLength(packetPushStarted)) - sum(packetLength(packetPulled)) - sum(packetLength(packetRemoved)) - sum(packetLength(packetDropped))))"
attr title "queue bit length, last"
attr unit b
scalar WirelessB2.hostA.wlan[0].queue queueBitLength:max 82240
attr autoWarmupFilter false
attr interpolationmode sample-hold
attr recordingmode max
attr source "warmup(atomic(constant0(packetPushEnded) + sum(packetLength(packetPushStarted)) - sum(packetLength(packetPulled)) - sum(packetLength(packetRemoved)) - sum(packetLength(packetDropped))))"
attr title "queue bit length, max"
attr unit b
scalar WirelessB2.hostA.wlan[0].queue queueBitLength:timeavg 24959.847213275
attr autoWarmupFilter false
attr interpolationmode sample-hold
attr recordingmode timeavg
attr source "warmup(atomic(constant0(packetPushEnded) + sum(packetLength(packetPushStarted)) - sum(packetLength(packetPulled)) - sum(packetLength(packetRemoved)) - sum(packetLength(packetDropped))))"
attr title "queue bit length, timeavg"
attr unit b
statistic WirelessB2.hostA.wlan[0].queue queueingTime:histogram
field count 97
field mean 0.048801786702536
field stddev 0.06130303851164
field min 0
field max 0.206957197058
field sum 4.733773310146
field sqrsum 0.59179059833283
attr interpolationmode none
attr recordingmode histogram
attr source queueingTime(packetPulled)
attr title "queueing times"
attr unit s
bin	-inf	0
bin	0	22
bin	0.005	13
bin	0.01	12
bin	0.015	7
bin	0.02	6
bin	0.025	2
bin	0.03	2
bin	0.035	0
bin	0.04	3
bin	0.045	1
bin	0.05	0
bin	0.055	0
bin	0.06	1
bin	0.065	0
bin	0.07	0
bin	0.075	1
bin	0.08	0
bin	0.085	0
bin	0.09	1
bin	0.095	0
bin	0.1	1
bin	0.105	6
bin	0.11	5
bin	0.115	1
bin	0.12	0
bin	0.125	3
bin	0.13	0
bin	0.135	0
bin	0.14	1
bin	0.145	0
bin	0.15	1
bin	0.155	0
bin	0.16	0
bin	0.165	1
bin	0.17	1
bin	0.175	0
bin	0.18	0
bin	0.185	0
bin	0.19	1
bin	0.195	1
bin	0.2	2
bin	0.205	2
bin	0.21	0
bin	0.215	0
bin	0.22	0
bin	0.225	0
bin	0.23	0
bin	0.235	0
bin	0.24	0
bin	0.245	0
bin	0.25	0
bin	0.255	0
bin	0.26	0
scalar WirelessB2.hostA.wlan[0].queue outgoingPackets:count 97
attr recordingmode count
attr source packetPulled
attr title "outgoing packets, count"
attr unit pk
scalar WirelessB2.hostA.wlan[0].queue outgoingPacketLengths:sum 782112
attr interpolationmode none
attr recordingmode sum
attr source packetLength(packetPulled)
attr title "outgoing packet lengths, sum"
attr unit b
statistic WirelessB2.hostA.wlan[0].queue outgoingPacketLengths:histogram
field count 97
field mean 8063.0103092784
field stddev 1115.3087810001
field min 416
field max 8224
field sum 782112
field sqrsum 6425592832
attr interpolationmode none
attr recordingmode histogram
attr source packetLength(packetPulled)
attr title "outgoing packet lengths"
attr unit b
bin	-inf	0
bin	0	0
bin	200	0
bin	400	2
bin	600	0
bin	800	0
bin	1000	0
bin	1200	0
bin	1400	0
bin	1600	0
bin	1800	0
bin	2000	0
bin	2200	0
bin	2400	0
bin	2600	0
bin	2800	0
bin	3000	0
bin	3200	0
bin	3400	0
bin	3600	0
bin	3800	0
bin	4000	0
bin	4200	0
bin	4400	0
bin	4600	0
bin	4800	0
bin	5000	0
bin	5200	0
bin	5400	0
bin	5600	0
bin	5800	0
bin	6000	0
bin	6200	0
bin	6400	0
bin	6600	0
bin	6800	0
bin	7000	0
bin	7200	0
bin	7400	0
bin	7600	0
bin	7800	0
bin	8000	0
bin	8200	95
bin	8400	0
bin	8600	0
bin	8800	0
bin	9000	0
bin	9200	0
bin	9400	0
bin	9600	0
bin	9800	0
bin	10000	0
bin	10200	0
statistic WirelessB2.hostA.wlan[0].queue flowQueueingTime:histogram
field count 0
field mean -nan
field stddev nan
field min nan
field max nan
field sum 0
field sqrsum 0
attr interpolationmode none
attr recordingmode histogram
attr source queueingTime(demuxFlow(packetPulled))
attr title "flow queueing times"
attr unit s
bin	-inf	0
bin	0	0
bin	1	0
scalar WirelessB2.hostA.wlan[0].queue incomingPackets:count 137
attr recordingmode count
attr source packetPushStarted
attr title "incoming packets, count"
attr unit pk
scalar WirelessB2.hostA.wlan[0].queue incomingPacketLengths:sum 1111072
attr interpolationmode none
attr recordingmode sum
attr source packetLength(packetPushStarted)
attr title "incoming packet lengths, sum"
attr unit b
statistic WirelessB2.hostA.wlan[0].queue incomingPacketLengths:histogram
field count 137
field mean 8110.0145985401
field stddev 939.92229016553
field min 416
field max 8224
field sum 1111072
field sqrsum 9130959872
attr interpolationmode none
attr recordingmode histogram
attr source packetLength(packetPushStarted)
attr title "incoming packet lengths"
attr unit b
bin	-inf	0
bin	0	0
bin	200	0
bin	400	2
bin	600	0
bin	800	0
bin	1000	0
bin	1200	0
bin	1400	0
bin	1600	0
bin	1800	0
bin	2000	0
bin	2200	0
bin	2400	0
bin	2600	0
bin	2800	0
bin	3000	0
bin	3200	0
bin	3400	0
bin	3600	0
bin	3800	0
bin	4000	0
bin	4200	0
bin	4400	0
bin	4600	0
bin	4800	0
bin	5000	0
bin	5200	0
bin	5400	0
bin	5600	0
bin	5800	0
bin	6000	0
bin	6200	0
bin	6400	0
bin	6600	0
bin	6800	0
bin	7000	0
bin	7200	0
bin	7400	0
bin	7600	0
bin	7800	0
bin	8000	0
bin	8200	135
bin	8400	0
bin	8600	0
bin	8800	0
bin	9000	0
bin	9200	0
bin	9400	0
bin	9600	0
bin	9800	0
bin	10000	0
bin	10200	0
scalar WirelessB2.hostA.wlan[0].queue droppedPacketsQueueOverflow:count 38
attr interpolationmode none
attr recordingmode count
attr source packetDropReasonIsQueueOverflow(packetDropped)
attr title "dropped packets: queue overflow, count"
attr unit pk
scalar WirelessB2.hostA.wlan[0].queue droppedPacketLengthsQueueOverflow:sum 312512
attr interpolationmode none
attr recordingmode sum
attr source packetLength(packetDropReasonIsQueueOverflow(packetDropped))
attr title "dropped packet lengths: queue overflow, sum"
attr unit b
par WirelessB2.hostA.wlan[0].mac typename "\"inet.linklayer.csmaca.CsmaCaMac\""
par WirelessB2.hostA.wlan[0].mac displayStringTextFormat "\"\""
attr mutable ""
par WirelessB2.hostA.wlan[0].mac interfaceTableModule "\"WirelessB2.hostA.interfaceTable\""
par WirelessB2.hostA.wlan[0].mac radioModule "\"^.radio\""
par WirelessB2.hostA.wlan[0].mac address "\"auto\""
attr mutable ""
par WirelessB2.hostA.wlan[0].mac fcsMode "\"declared\""
attr enum declared,computed
par WirelessB2.hostA.wlan[0].mac useAck true
par WirelessB2.hostA.wlan[0].mac bitrate 1e+06bps
attr unit bps
par WirelessB2.hostA.wlan[0].mac headerLength 23B
attr unit B
par WirelessB2.hostA.wlan[0].mac ackLength 14B
attr unit B
par WirelessB2.hostA.wlan[0].mac sifsTime 1e-05s
attr unit s
par WirelessB2.hostA.wlan[0].mac slotTime 2e-05s
attr unit s
par WirelessB2.hostA.wlan[0].mac difsTime 5e-05s
attr unit s
par WirelessB2.hostA.wlan[0].mac ackTimeout 0.0003s
attr unit s
par WirelessB2.hostA.wlan[0].mac mtu 1500
par WirelessB2.hostA.wlan[0].mac cwMin 31
par WirelessB2.hostA.wlan[0].mac cwMax 1023
par WirelessB2.hostA.wlan[0].mac cwMulticast 31
par WirelessB2.hostA.wlan[0].mac retryLimit 7
scalar WirelessB2.hostA.wlan[0].mac numRetry 0
scalar WirelessB2.hostA.wlan[0].mac numSentWithoutRetry 94
scalar WirelessB2.hostA.wlan[0].mac numGivenUp 0
scalar WirelessB2.hostA.wlan[0].mac numCollision 1
scalar WirelessB2.hostA.wlan[0].mac numSent 94
scalar WirelessB2.hostA.wlan[0].mac numReceived 1
scalar WirelessB2.hostA.wlan[0].mac numSentBroadcast 2
scalar WirelessB2.hostA.wlan[0].mac numReceivedBroadcast 2
scalar WirelessB2.hostA.wlan[0].mac packetDropIncorrectlyReceived:count 1
attr interpolationmode none
attr recordingmode count
attr source packetDropReasonIsIncorrectlyReceived(packetDropped)
attr title "packet drop: incorrectly received, count"
scalar WirelessB2.hostA.wlan[0].mac packetDropIncorrectlyReceived:sum(packetBytes) 1055
attr interpolationmode none
attr recordingmode sum(packetBytes)
attr source packetDropReasonIsIncorrectlyReceived(packetDropped)
attr title "packet drop: incorrectly received, sum(packetBytes)"
scalar WirelessB2.hostA.wlan[0].mac packetDropNotAddressedToUs:count 22
attr interpolationmode none
attr recordingmode count
attr source packetDropReasonIsNotAddressedToUs(packetDropped)
attr title "packet drop: not addressed to us, count"
scalar WirelessB2.hostA.wlan[0].mac packetDropNotAddressedToUs:sum(packetBytes) 23210
attr interpolationmode none
attr recordingmode sum(packetBytes)
attr source packetDropReasonIsNotAddressedToUs(packetDropped)
attr title "packet drop: not addressed to us, sum(packetBytes)"
scalar WirelessB2.hostA.wlan[0].mac packetDropQueueOverflow:count 0
attr interpolationmode none
attr recordingmode count
attr source packetDropReasonIsQueueOverflow(packetDropped)
attr title "packet drop: queue overflow, count"
scalar WirelessB2.hostA.wlan[0].mac packetDropQueueOverflow:sum(packetBytes) 0
attr interpolationmode none
attr recordingmode sum(packetBytes)
attr source packetDropReasonIsQueueOverflow(packetDropped)
attr title "packet drop: queue overflow, sum(packetBytes)"
scalar WirelessB2.hostA.wlan[0].mac packetDropRetryLimitReached:count 0
attr interpolationmode none
attr recordingmode count
attr source packetDropReasonIsRetryLimitReached(packetDropped)
attr title "packet drop: retry limit reached, count"
scalar WirelessB2.hostA.wlan[0].mac packetDropRetryLimitReached:sum(packetBytes) 0
attr interpolationmode none
attr recordingmode sum(packetBytes)
attr source packetDropReasonIsRetryLimitReached(packetDropped)
attr title "packet drop: retry limit reached, sum(packetBytes)"
scalar WirelessB2.hostA.wlan[0].mac linkBroken:count 0
attr interpolationmode none
attr recordingmode count
attr source linkBroken
attr title "link break, count"
par WirelessB2.hostA.wlan[0].radio.antenna typename "\"inet.physicallayer.wireless.common.antenna.IsotropicAntenna\""
par WirelessB2.hostA.wlan[0].radio.antenna displayStringTextFormat "\"\""
attr mutable ""
par WirelessB2.hostA.wlan[0].radio.antenna mobilityModule "\"^.^.^.mobility\""
par WirelessB2.hostA.wlan[0].radio.antenna numAntennas 1
par WirelessB2.hostA.wlan[0].radio.transmitter.analogModel typename "\"inet.physicallayer.wireless.common.analogmodel.unitdisk.UnitDiskTransmitterAnalogModel\""
par WirelessB2.hostA.wlan[0].radio.transmitter.analogModel displayStringTextFormat "\"\""
attr mutable ""
par WirelessB2.hostA.wlan[0].radio.transmitter.analogModel communicationRange 250m
attr unit m
par WirelessB2.hostA.wlan[0].radio.transmitter.analogModel interferenceRange 500m
attr unit m
par WirelessB2.hostA.wlan[0].radio.transmitter.analogModel detectionRange 500m
attr unit m
par WirelessB2.hostA.wlan[0].radio.transmitter typename "\"inet.physicallayer.wireless.generic.GenericTransmitter\""
[...]
attr title "Symbol error rate"
bin	-inf	0
bin	-0.5	0
bin	-0.48	0
bin	-0.46	0
bin	-0.44	0
bin	-0.42	0
bin	-0.4	0
bin	-0.38	0
bin	-0.36	0
bin	-0.34	0
bin	-0.32	0
bin	-0.3	0
bin	-0.28	0
bin	-0.26	0
bin	-0.24	0
bin	-0.22	0
bin	-0.2	0
bin	-0.18	0
bin	-0.16	0
bin	-0.14	0
bin	-0.12	0
bin	-0.1	0
bin	-0.08	0
bin	-0.06	0
bin	-0.04	0
bin	-0.02	0
bin	0	31
bin	0.02	0
bin	0.04	0
bin	0.06	0
bin	0.08	0
bin	0.1	0
bin	0.12	0
bin	0.14	0
bin	0.16	0
bin	0.18	0
bin	0.2	0
bin	0.22	0
bin	0.24	0
bin	0.26	0
bin	0.28	0
bin	0.3	0
bin	0.32	0
bin	0.34	0
bin	0.36	0
bin	0.38	0
bin	0.4	0
bin	0.42	0
bin	0.44	0
bin	0.46	0
bin	0.48	0
bin	0.5	0
par WirelessB2.hostR3.wlan[0] typename "\"inet.linklayer.common.WirelessInterface\""
par WirelessB2.hostR3.wlan[0] displayStringTextFormat "\"%a (%i)\\n%m\""
attr mutable ""
par WirelessB2.hostR3.wlan[0] recordPcap false
par WirelessB2.hostR3.wlan[0] numPcapRecorders 0
par WirelessB2.hostR3.wlan[0] interfaceTableModule "\"WirelessB2.hostR3.interfaceTable\""
par WirelessB2.hostR3.wlan[0] energySourceModule "\"WirelessB2.hostR3.energyStorage\""
par WirelessB2.hostR3.wlan[0] protocol "\"\""
scalar WirelessB2.hostR3.wlan[0] packetDropInterfaceDown:count 0
attr interpolationmode none
attr recordingmode count
attr source packetDropReasonIsInterfaceDown(packetDropped)
attr title "packet drops: interface down, count"
scalar WirelessB2.hostR3.wlan[0] packetDropInterfaceDown:sum(packetBytes) 0
attr interpolationmode none
attr recordingmode sum(packetBytes)
attr source packetDropReasonIsInterfaceDown(packetDropped)
attr title "packet drops: interface down, sum(packetBytes)"
scalar WirelessB2.hostR3.wlan[0] packetDropNoCarrier:count 0
attr interpolationmode none
attr recordingmode count
attr source packetDropReasonIsNoCarrier(packetDropped)
attr title "packet drops: no carrier, count"
scalar WirelessB2.hostR3.wlan[0] packetDropNoCarrier:sum(packetBytes) 0
attr interpolationmode none
attr recordingmode sum(packetBytes)
attr source packetDropReasonIsNoCarrier(packetDropped)
attr title "packet drops: no carrier, sum(packetBytes)"
par WirelessB2.hostR3.ipv4.transportIn.channel typename "\"ned.IdealChannel\""
par WirelessB2.hostR3.ipv4.up.out[0].channel typename "\"ned.IdealChannel\""
par WirelessB2.hostR3.ipv4.lp.out[2].channel typename "\"ned.IdealChannel\""
par WirelessB2.hostR3.ipv4.ifIn.channel typename "\"ned.IdealChannel\""
par WirelessB2.hostR3.ipv4.configurator typename "\"inet.networklayer.configurator.ipv4.Ipv4NodeConfigurator\""
par WirelessB2.hostR3.ipv4.configurator displayStringTextFormat "\"\""
attr mutable ""
par WirelessB2.hostR3.ipv4.configurator interfaceTableModule "\"WirelessB2.hostR3.interfaceTable\""
par WirelessB2.hostR3.ipv4.configurator routingTableModule "\"WirelessB2.hostR3.ipv4.routingTable\""
par WirelessB2.hostR3.ipv4.configurator networkConfiguratorModule "\"configurator\""
par WirelessB2.hostR3.ipv4.configurator configureRoutingTable true
par WirelessB2.hostR3.ipv4.routingTable typename "\"inet.networklayer.ipv4.Ipv4RoutingTable\""
par WirelessB2.hostR3.ipv4.routingTable displayStringTextFormat "\"\""
attr mutable ""
par WirelessB2.hostR3.ipv4.routingTable interfaceTableModule "\"WirelessB2.hostR3.interfaceTable\""
par WirelessB2.hostR3.ipv4.routingTable routerId "\"auto\""
par WirelessB2.hostR3.ipv4.routingTable netmaskRoutes "\"\""
par WirelessB2.hostR3.ipv4.routingTable forwarding true
par WirelessB2.hostR3.ipv4.routingTable multicastForwarding false
par WirelessB2.hostR3.ipv4.routingTable useAdminDist false
par WirelessB2.hostR3.ipv4.routingTable routingFile "\"\""
par WirelessB2.hostR3.ipv4.natTable typename "\"inet.networklayer.ipv4.Ipv4NatTable\""
par WirelessB2.hostR3.ipv4.natTable displayStringTextFormat "\"\""
attr mutable ""
par WirelessB2.hostR3.ipv4.natTable networkProtocolModule "\"^.ip\""
par WirelessB2.hostR3.ipv4.natTable config "<config/> at content:1"
par WirelessB2.hostR3.ipv4.up typename "\"inet.common.MessageDispatcher\""
par WirelessB2.hostR3.ipv4.up displayStringTextFormat "\"processed %p pk (%l)\""
attr mutable ""
par WirelessB2.hostR3.ipv4.up interfaceTableModule "\"WirelessB2.hostR3.interfaceTable\""
par WirelessB2.hostR3.ipv4.up forwardServiceRegistration true
par WirelessB2.hostR3.ipv4.up forwardProtocolRegistration true
par WirelessB2.hostR3.ipv4.up interfaceMapping {}
par WirelessB2.hostR3.ipv4.up serviceMapping {}
par WirelessB2.hostR3.ipv4.up protocolMapping {}
par WirelessB2.hostR3.ipv4.igmp typename "\"inet.networklayer.ipv4.Igmpv2\""
par WirelessB2.hostR3.ipv4.igmp displayStringTextFormat "\"\""
attr mutable ""
par WirelessB2.hostR3.ipv4.igmp interfaceTableModule "\"WirelessB2.hostR3.interfaceTable\""
par WirelessB2.hostR3.ipv4.igmp routingTableModule "\"WirelessB2.hostR3.ipv4.routingTable\""
par WirelessB2.hostR3.ipv4.igmp checksumMode "\"declared\""
attr enum declared,computed
par WirelessB2.hostR3.ipv4.igmp enabled true
par WirelessB2.hostR3.ipv4.igmp robustnessVariable 2
par WirelessB2.hostR3.ipv4.igmp queryInterval 125s
attr unit s
par WirelessB2.hostR3.ipv4.igmp queryResponseInterval 10s
attr unit s
par WirelessB2.hostR3.ipv4.igmp groupMembershipInterval 260s
attr unit s
par WirelessB2.hostR3.ipv4.igmp otherQuerierPresentInterval 255s
attr unit s
par WirelessB2.hostR3.ipv4.igmp startupQueryInterval 31.25s
attr unit s
par WirelessB2.hostR3.ipv4.igmp startupQueryCount 2
par WirelessB2.hostR3.ipv4.igmp lastMemberQueryInterval 1s
attr unit s
par WirelessB2.hostR3.ipv4.igmp lastMemberQueryCount 2
par WirelessB2.hostR3.ipv4.igmp unsolicitedReportInterval 10s
attr unit s
par WirelessB2.hostR3.ipv4.icmp typename "\"inet.networklayer.ipv4.Icmp\""
par WirelessB2.hostR3.ipv4.icmp displayStringTextFormat "\"\""
attr mutable ""
par WirelessB2.hostR3.ipv4.icmp interfaceTableModule "\"WirelessB2.hostR3.interfaceTable\""
par WirelessB2.hostR3.ipv4.icmp routingTableModule "\"WirelessB2.hostR3.ipv4.routingTable\""
par WirelessB2.hostR3.ipv4.icmp checksumMode "\"declared\""
attr enum declared,computed
attr mutable ""
par WirelessB2.hostR3.ipv4.icmp quoteLength 8B
attr mutable ""
attr unit B
par WirelessB2.hostR3.ipv4.mp typename "\"inet.common.MessageDispatcher\""
par WirelessB2.hostR3.ipv4.mp displayStringTextFormat "\"processed %p pk (%l)\""
attr mutable ""
par WirelessB2.hostR3.ipv4.mp interfaceTableModule "\"WirelessB2.hostR3.interfaceTable\""
par WirelessB2.hostR3.ipv4.mp forwardServiceRegistration true
par WirelessB2.hostR3.ipv4.mp forwardProtocolRegistration true
par WirelessB2.hostR3.ipv4.mp interfaceMapping {}
par WirelessB2.hostR3.ipv4.mp serviceMapping {}
par WirelessB2.hostR3.ipv4.mp protocolMapping {}
par WirelessB2.hostR3.ipv4.ip typename "\"inet.networklayer.ipv4.Ipv4\""
par WirelessB2.hostR3.ipv4.ip displayStringTextFormat "\"\""
attr mutable ""
par WirelessB2.hostR3.ipv4.ip interfaceTableModule "\"WirelessB2.hostR3.interfaceTable\""
par WirelessB2.hostR3.ipv4.ip routingTableModule "\"WirelessB2.hostR3.ipv4.routingTable\""
par WirelessB2.hostR3.ipv4.ip arpModule "\"WirelessB2.hostR3.ipv4.arp\""
par WirelessB2.hostR3.ipv4.ip icmpModule "\"WirelessB2.hostR3.ipv4.icmp\""
par WirelessB2.hostR3.ipv4.ip checksumMode "\"declared\""
attr enum declared,computed
par WirelessB2.hostR3.ipv4.ip timeToLive 32
par WirelessB2.hostR3.ipv4.ip multicastTimeToLive 32
par WirelessB2.hostR3.ipv4.ip fragmentTimeout 60s
attr unit s
par WirelessB2.hostR3.ipv4.ip limitedBroadcast false
par WirelessB2.hostR3.ipv4.ip directBroadcastInterfaces "\"\""
par WirelessB2.hostR3.ipv4.ip enableLocalOutMulticastRouting false
par WirelessB2.hostR3.ipv4.ip enableTimestampOption false
par WirelessB2.hostR3.ipv4.ip maxLifetime -1s
attr unit s
scalar WirelessB2.hostR3.ipv4.ip packetDropAddressResolutionFailed:count 0
attr interpolationmode none
attr recordingmode count
attr source packetDropReasonIsAddressResolutionFailed(packetDropped)
attr title "packet drop: address resolution failed, count"
scalar WirelessB2.hostR3.ipv4.ip packetDropAddressResolutionFailed:sum(packetBytes) 0
attr interpolationmode none
attr recordingmode sum(packetBytes)
attr source packetDropReasonIsAddressResolutionFailed(packetDropped)
attr title "packet drop: address resolution failed, sum(packetBytes)"
scalar WirelessB2.hostR3.ipv4.ip packetDropHopLimitReached:count 0
attr interpolationmode none
attr recordingmode count
attr source packetDropReasonIsHopLimitReached(packetDropped)
attr title "packet drop: hop limit reached, count"
scalar WirelessB2.hostR3.ipv4.ip packetDropHopLimitReached:sum(packetBytes) 0
attr interpolationmode none
attr recordingmode sum(packetBytes)
attr source packetDropReasonIsHopLimitReached(packetDropped)
attr title "packet drop: hop limit reached, sum(packetBytes)"
scalar WirelessB2.hostR3.ipv4.ip packetDropForwardingDisabled:count 0
attr interpolationmode none
attr recordingmode count
attr source packetDropReasonIsForwardingDisabled(packetDropped)
attr title "packet drop: forwarding disabled, count"
scalar WirelessB2.hostR3.ipv4.ip packetDropForwardingDisabled:sum(packetBytes) 0
attr interpolationmode none
attr recordingmode sum(packetBytes)
attr source packetDropReasonIsForwardingDisabled(packetDropped)
attr title "packet drop: forwarding disabled, sum(packetBytes)"
scalar WirelessB2.hostR3.ipv4.ip packetDropLifetimeExpired:count 0
attr interpolationmode none
attr recordingmode count
attr source packetDropReasonIsLifetimeExpired(packetDropped)
attr title "packet drop: lifetime expired, count"
scalar WirelessB2.hostR3.ipv4.ip packetDropLifetimeExpired:sum(packetBytes) 0
attr interpolationmode none
attr recordingmode sum(packetBytes)
attr source packetDropReasonIsLifetimeExpired(packetDropped)
attr title "packet drop: lifetime expired, sum(packetBytes)"
scalar WirelessB2.hostR3.ipv4.ip packetDropNoInterfaceFound:count 0
attr interpolationmode none
attr recordingmode count
attr source packetDropReasonIsNoInterfaceFound(packetDropped)
attr title "packet drop: no interface found, count"
scalar WirelessB2.hostR3.ipv4.ip packetDropNoInterfaceFound:sum(packetBytes) 0
attr interpolationmode none
attr recordingmode sum(packetBytes)
attr source packetDropReasonIsNoInterfaceFound(packetDropped)
attr title "packet drop: no interface found, sum(packetBytes)"
scalar WirelessB2.hostR3.ipv4.ip packetDropNoRouteFound:count 0
attr interpolationmode none
attr recordingmode count
attr source packetDropReasonIsNoRouteFound(packetDropped)
attr title "packet drop: no route found, count"
scalar WirelessB2.hostR3.ipv4.ip packetDropNoRouteFound:sum(packetBytes) 0
attr interpolationmode none
attr recordingmode sum(packetBytes)
attr source packetDropReasonIsNoRouteFound(packetDropped)
attr title "packet drop: no route found, sum(packetBytes)"
scalar WirelessB2.hostR3.ipv4.ip packetDropUndefined:count 0
attr interpolationmode none
attr recordingmode count
attr source packetDropReasonIsUndefined(packetDropped)
attr title "packet drop: undefined, count"
scalar WirelessB2.hostR3.ipv4.ip packetDropUndefined:sum(packetBytes) 0
attr interpolationmode none
attr recordingmode sum(packetBytes)
attr source packetDropReasonIsUndefined(packetDropped)
attr title "packet drop: undefined, sum(packetBytes)"
par WirelessB2.hostR3.ipv4.arp typename "\"inet.networklayer.arp.ipv4.GlobalArp\""
par WirelessB2.hostR3.ipv4.arp displayStringTextFormat "\"\""
attr mutable ""
par WirelessB2.hostR3.ipv4.arp interfaceTableModule "\"WirelessB2.hostR3.interfaceTable\""
par WirelessB2.hostR3.ipv4.arp addressType "\"ipv4\""
attr enum ipv4,ipv6,mac,moduleid,modulepath
par WirelessB2.hostR3.ipv4.lp typename "\"inet.common.MessageDispatcher\""
par WirelessB2.hostR3.ipv4.lp displayStringTextFormat "\"processed %p pk (%l)\""
attr mutable ""
par WirelessB2.hostR3.ipv4.lp interfaceTableModule "\"WirelessB2.hostR3.interfaceTable\""
par WirelessB2.hostR3.ipv4.lp forwardServiceRegistration true
par WirelessB2.hostR3.ipv4.lp forwardProtocolRegistration true
par WirelessB2.hostR3.ipv4.lp interfaceMapping {}
par WirelessB2.hostR3.ipv4.lp serviceMapping {}
par WirelessB2.hostR3.ipv4.lp protocolMapping {}
par WirelessB2.hostR3.ipv4 typename "\"inet.networklayer.ipv4.Ipv4NetworkLayer\""
par WirelessB2.hostR3.ipv4 displayStringTextFormat "\"%i\""
attr mutable ""
par WirelessB2.hostR3.ipv4 forwarding true
par WirelessB2.hostR3.ipv4 multicastForwarding false
par WirelessB2.hostR3.ipv4 hasIpsec false
par WirelessB2.hostR3.ipv4 interfaceTableModule "\"WirelessB2.hostR3.interfaceTable\""
par WirelessB2.hostR3.nl typename "\"inet.common.MessageDispatcher\""
par WirelessB2.hostR3.nl displayStringTextFormat "\"processed %p pk (%l)\""
attr mutable ""
par WirelessB2.hostR3.nl interfaceTableModule "\"WirelessB2.hostR3.interfaceTable\""
par WirelessB2.hostR3.nl forwardServiceRegistration true
par WirelessB2.hostR3.nl forwardProtocolRegistration true
par WirelessB2.hostR3.nl interfaceMapping {}
par WirelessB2.hostR3.nl serviceMapping {}
par WirelessB2.hostR3.nl protocolMapping {}
par WirelessB2.hostR3.udp typename "\"inet.transportlayer.udp.Udp\""
par WirelessB2.hostR3.udp displayStringTextFormat "\"\""
attr mutable ""
par WirelessB2.hostR3.udp interfaceTableModule "\"WirelessB2.hostR3.interfaceTable\""
par WirelessB2.hostR3.udp icmpModule "\"^.ipv4.icmp\""
par WirelessB2.hostR3.udp icmpv6Module "\"^.ipv6.icmpv6\""
par WirelessB2.hostR3.udp checksumMode "\"declared\""
attr enum disabled,declared,computed
par WirelessB2.hostR3.udp defaultMulticastLoop true
scalar WirelessB2.hostR3.udp packetReceived:count 3
attr interpolationmode none
attr recordingmode count
attr source packetReceived
attr title "packets received, count"
scalar WirelessB2.hostR3.udp packetReceived:sum(packetBytes) 92
attr interpolationmode none
attr recordingmode sum(packetBytes)
attr source packetReceived
attr title "packets received, sum(packetBytes)"
scalar WirelessB2.hostR3.udp packetSent:count 2
attr interpolationmode none
attr recordingmode count
attr source packetSent
attr title "packets sent, count"
scalar WirelessB2.hostR3.udp packetSent:sum(packetBytes) 60
attr interpolationmode none
attr recordingmode sum(packetBytes)
attr source packetSent
attr title "packets sent, sum(packetBytes)"
scalar WirelessB2.hostR3.udp passedUpPk:count 3
attr interpolationmode none
attr recordingmode count
attr source packetSentToUpper
attr title "packets passed up, count"
scalar WirelessB2.hostR3.udp droppedPkWrongPort:count 0
attr interpolationmode none
attr recordingmode count
attr source packetDropReasonIsNoPortFound(packetDropped)
attr title "packets dropped (wrong port), count"
scalar WirelessB2.hostR3.udp droppedPkBadChecksum:count 0
attr interpolationmode none
attr recordingmode count
attr source packetDropReasonIsIncorrectlyReceived(packetDropped)
attr title "packets dropped (checksum error), count"
par WirelessB2.hostR3.tcp typename "\"inet.transportlayer.tcp.Tcp\""
par WirelessB2.hostR3.tcp displayStringTextFormat "\"\""
attr mutable ""
par WirelessB2.hostR3.tcp checksumMode "\"declared\""
attr enum declared,computed
par WirelessB2.hostR3.tcp advertisedWindow 7504
par WirelessB2.hostR3.tcp delayedAcksEnabled false
par WirelessB2.hostR3.tcp nagleEnabled true
par WirelessB2.hostR3.tcp limitedTransmitEnabled false
par WirelessB2.hostR3.tcp increasedIWEnabled false
par WirelessB2.hostR3.tcp sackSupport false
par WirelessB2.hostR3.tcp windowScalingSupport false
par WirelessB2.hostR3.tcp windowScalingFactor -1
par WirelessB2.hostR3.tcp timestampSupport false
par WirelessB2.hostR3.tcp mss 536
par WirelessB2.hostR3.tcp msl 120s
attr unit s
par WirelessB2.hostR3.tcp tcpAlgorithmClass "\"TcpReno\""
attr examples TcpVegas,TcpWestwood,DcTcp,TcpNewReno,TcpReno,TcpTahoe,TcpNoCongestionControl
par WirelessB2.hostR3.tcp dupthresh 3
par WirelessB2.hostR3.tcp initialSsthresh 4294967295
par WirelessB2.hostR3.tcp stopOperationExtraTime 0s
attr unit s
par WirelessB2.hostR3.tcp stopOperationTimeout 2s
attr unit s
par WirelessB2.hostR3.tcp ecnWillingness false
par WirelessB2.hostR3.tcp dctcpGamma 0.0625
par WirelessB2.hostR3.tn typename "\"inet.common.MessageDispatcher\""
par WirelessB2.hostR3.tn displayStringTextFormat "\"processed %p pk (%l)\""
attr mutable ""
par WirelessB2.hostR3.tn interfaceTableModule "\"WirelessB2.hostR3.interfaceTable\""
par WirelessB2.hostR3.tn forwardServiceRegistration true
par WirelessB2.hostR3.tn forwardProtocolRegistration true
par WirelessB2.hostR3.tn interfaceMapping {}
par WirelessB2.hostR3.tn serviceMapping {}
par WirelessB2.hostR3.tn protocolMapping {}
par WirelessB2.hostR3.at typename "\"inet.common.MessageDispatcher\""
par WirelessB2.hostR3.at displayStringTextFormat "\"processed %p pk (%l)\""
attr mutable ""
par WirelessB2.hostR3.at interfaceTableModule "\"WirelessB2.hostR3.interfaceTable\""
par WirelessB2.hostR3.at forwardServiceRegistration true
par WirelessB2.hostR3.at forwardProtocolRegistration true
par WirelessB2.hostR3.at interfaceMapping {}
par WirelessB2.hostR3.at serviceMapping {}
par WirelessB2.hostR3.at protocolMapping {}
par WirelessB2.hostR3.aodv typename "\"inet.routing.aodv.Aodv\""
par WirelessB2.hostR3.aodv displayStringTextFormat "\"\""
attr mutable ""
par WirelessB2.hostR3.aodv routingTableModule "\"^.ipv4.routingTable\""
par WirelessB2.hostR3.aodv interfaceTableModule "\"WirelessB2.hostR3.interfaceTable\""
par WirelessB2.hostR3.aodv networkProtocolModule "\"^.ipv4.ip\""
par WirelessB2.hostR3.aodv askGratuitousRREP false
par WirelessB2.hostR3.aodv useHelloMessages false
par WirelessB2.hostR3.aodv useLocalRepair false
par WirelessB2.hostR3.aodv destinationOnlyFlag false
par WirelessB2.hostR3.aodv udpPort 654
par WirelessB2.hostR3.aodv interface "\"wlan0\""
par WirelessB2.hostR3.aodv gatewayAddress "\"\""
par WirelessB2.hostR3.aodv maxPeriodicJitter 0.25s
attr unit s
par WirelessB2.hostR3.aodv periodicJitter "uniform(0s, maxPeriodicJitter)"
attr unit s
par WirelessB2.hostR3.aodv maxJitter 0.005s
attr unit s
par WirelessB2.hostR3.aodv jitter "uniform(0ms, maxJitter)"
attr unit s
par WirelessB2.hostR3.aodv helloInterval 1s
attr unit s
par WirelessB2.hostR3.aodv allowedHelloLoss 2
par WirelessB2.hostR3.aodv activeRouteTimeout 3s
attr unit s
par WirelessB2.hostR3.aodv netDiameter 35
par WirelessB2.hostR3.aodv nodeTraversalTime 0.04s
attr unit s
par WirelessB2.hostR3.aodv rerrRatelimit 10
par WirelessB2.hostR3.aodv rreqRetries 2
par WirelessB2.hostR3.aodv rreqRatelimit 10
par WirelessB2.hostR3.aodv timeoutBuffer 2
par WirelessB2.hostR3.aodv ttlStart 2
par WirelessB2.hostR3.aodv ttlIncrement 2
par WirelessB2.hostR3.aodv ttlThreshold 7
par WirelessB2.hostR3.aodv localAddTTL 2
par WirelessB2.hostR3.aodv myRouteTimeout 6s
attr unit s
par WirelessB2.hostR3.aodv deletePeriod 15s
attr unit s
par WirelessB2.hostR3.aodv blacklistTimeout 5.6s
attr unit s
par WirelessB2.hostR3.aodv netTraversalTime 2.8s
attr unit s
par WirelessB2.hostR3.aodv nextHopWait 0.05s
attr unit s
par WirelessB2.hostR3.aodv pathDiscoveryTime 5.6s
attr unit s
par WirelessB2.hostR3 typename "\"inet.node.aodv.AodvRouter\""
par WirelessB2.hostR3 displayStringTextFormat "\"\""
attr mutable ""
par WirelessB2.hostR3 hasStatus false
par WirelessB2.hostR3 hasEnvironment false
par WirelessB2.hostR3 osgModel "\"\""
par WirelessB2.hostR3 osgModelColor "\"\""
par WirelessB2.hostR3 canvasImage "\"\""
par WirelessB2.hostR3 canvasImageColor "\"\""
par WirelessB2.hostR3 recordPcap false
par WirelessB2.hostR3 numPcapRecorders 0
par WirelessB2.hostR3 numLoInterfaces 1
par WirelessB2.hostR3 numWlanInterfaces 1
par WirelessB2.hostR3 numEthInterfaces 0
par WirelessB2.hostR3 numPppInterfaces 0
par WirelessB2.hostR3 numTunInterfaces 0
par WirelessB2.hostR3 numVirtInterfaces 0
par WirelessB2.hostR3 fcsMode "\"declared\""
attr enum declared,computed
par WirelessB2.hostR3 hasIpv4 true
par WirelessB2.hostR3 hasIpv6 false
par WirelessB2.hostR3 hasGn false
par WirelessB2.hostR3 forwarding true
par WirelessB2.hostR3 multicastForwarding false
par WirelessB2.hostR3 hasUdp true
par WirelessB2.hostR3 hasTcp true
par WirelessB2.hostR3 hasSctp false
par WirelessB2.hostR3 hasQuic false
par WirelessB2.hostR3 numApps 0
par WirelessB2 typename "\"WirelessB2\""

