version 3
run Aodv-0-20260607-00:23:23-185997
attr configname Aodv
attr datetime 20260607-00:23:23
attr datetimef 20260607-002323
attr experiment Aodv
attr inifile omnetpp.ini
attr iterationvars ""
attr iterationvarsd ""
attr iterationvarsf ""
attr measurement ""
attr network ManetprotocolsShowcaseB
attr processid 185997
attr repetition 0
attr replication #0
attr resultdir results
attr runnumber 0
attr seedset 0
config image-path ../inet-4.6.0/images
config sim-time-limit 200s
config extends MobileNodesBase
config *.*.routingApp.typename Aodv
config *.*.routingApp.activeRouteTimeout 1s
config *.*.routingApp.deletePeriod 0.5s
config *.visualizer.routingTableVisualizer[0].displayRoutingTables true
config *.visualizer.routingTableVisualizer[0].destinationFilter "\"destination\""
config network ManetprotocolsShowcaseB
config *.node*.wlan[0].radio.signalAnalogRepresentation "\"unitDisk\""
config **.transmitter.power 1mW
config *.node*.mobility.typename LinearMobility
config *.node*.mobility.initialMovementHeading uniform(0deg,360deg)
config *.node*.mobility.speed 25mps
config **.constraintAreaMaxX 400m
config **.constraintAreaMaxY 400m
config **.constraintAreaMinX 0m
config **.constraintAreaMinY 0m
config *.visualizer.routingTableVisualizer[0].displayLabels false
config *.visualizer.routingTableVisualizer[0].displayRoutesIndividually false
config *.visualizer.routingTableVisualizer[0].lineShift 0
config *.visualizer.networkRouteVisualizer[0].displayRoutes true
config *.visualizer.networkRouteVisualizer[0].packetFilter "\"*ping*\""
config *.visualizer.interfaceTableVisualizer[0].displayInterfaceTables true
config *.visualizer.interfaceTableVisualizer[0].format "\"%a/%l\""
config *.radioMedium.signalAnalogRepresentation "\"unitDisk\""
config *.*.wlan[0].radio.displayCommunicationRange true
config *.*.wlan[0].radio.signalAnalogRepresentation "\"unitDisk\""
config *.*.wlan[0].radio.transmitter.analogModel.communicationRange 300m
config *.visualizer.canvasVisualizer.displayCommunicationRange true
config *.source.numApps 1
config *.source.app[0].typename PingApp
config *.source.app[0].destAddr "\"destination\""
config *.source.app[0].printPing true
config *.visualizer.numDataLinkVisualizers 5
config *.visualizer.dataLinkVisualizer[*].activityLevel "\"peer\""
config *.visualizer.dataLinkVisualizer[*].displayLinks true
config *.visualizer.dataLinkVisualizer[0].packetFilter "\"aodv::Rreq or GPSRBeacon\""
config *.visualizer.dataLinkVisualizer[1].packetFilter "\"ping* or UDP*\""
config *.visualizer.dataLinkVisualizer[1].*Color "\"blue\""
config *.visualizer.dataLinkVisualizer[2].packetFilter "\"aodv::Rrep\""
config *.visualizer.dataLinkVisualizer[2].*Color "\"darkslategray\""
config *.visualizer.dataLinkVisualizer[3].packetFilter "\"aodv::Rerr\""
config *.visualizer.dataLinkVisualizer[3].*Color "\"red\""
config *.visualizer.dataLinkVisualizer[4].packetFilter "\"Hello\""
config *.visualizer.dataLinkVisualizer[4].*Color "\"green\""
config **.wlan[*].bitrate 24Mbps
config *.configurator.addStaticRoutes false
config **.netmaskRoutes "\"\""
config **.arp.typename GlobalArp

par ManetprotocolsShowcaseB.terrainLOS typename "\"terrainLOS\""
par ManetprotocolsShowcaseB.terrainLOS enabled false
par ManetprotocolsShowcaseB.terrainLOS use_height_map true
par ManetprotocolsShowcaseB.terrainLOS priority 0
par ManetprotocolsShowcaseB.terrainLOS east_width 400
par ManetprotocolsShowcaseB.terrainLOS south_width 400
par ManetprotocolsShowcaseB.terrainLOS radio_height 0
par ManetprotocolsShowcaseB.terrainLOS east_offset 0
par ManetprotocolsShowcaseB.terrainLOS south_offset 0
par ManetprotocolsShowcaseB.source.radioIn[0].channel typename "\"ned.IdealChannel\""
par ManetprotocolsShowcaseB.source.mobility typename "\"inet.mobility.static.StationaryMobility\""
par ManetprotocolsShowcaseB.source.mobility displayStringTextFormat "\"p: %p\\nv: %v\""
attr mutable ""
par ManetprotocolsShowcaseB.source.mobility subjectModule "\"^\""
par ManetprotocolsShowcaseB.source.mobility coordinateSystemModule "\"\""
par ManetprotocolsShowcaseB.source.mobility updateDisplayString true
par ManetprotocolsShowcaseB.source.mobility constraintAreaMinX 0m
attr unit m
par ManetprotocolsShowcaseB.source.mobility constraintAreaMinY 0m
attr unit m
par ManetprotocolsShowcaseB.source.mobility constraintAreaMinZ "-inf m"
attr unit m
par ManetprotocolsShowcaseB.source.mobility constraintAreaMaxX 400m
attr unit m
par ManetprotocolsShowcaseB.source.mobility constraintAreaMaxY 400m
attr unit m
par ManetprotocolsShowcaseB.source.mobility constraintAreaMaxZ "inf m"
attr unit m
par ManetprotocolsShowcaseB.source.mobility initialX 219.525m
attr unit m
par ManetprotocolsShowcaseB.source.mobility initialY 237.138m
attr unit m
par ManetprotocolsShowcaseB.source.mobility initialZ 0m
attr unit m
par ManetprotocolsShowcaseB.source.mobility initialLatitude "nan deg"
attr unit deg
par ManetprotocolsShowcaseB.source.mobility initialLongitude "nan deg"
attr unit deg
par ManetprotocolsShowcaseB.source.mobility initialAltitude 0m
attr unit m
par ManetprotocolsShowcaseB.source.mobility initialHeading 0deg
attr unit deg
par ManetprotocolsShowcaseB.source.mobility initialElevation 0deg
attr unit deg
par ManetprotocolsShowcaseB.source.mobility initialBank 0deg
attr unit deg
par ManetprotocolsShowcaseB.source.mobility initFromDisplayString true
par ManetprotocolsShowcaseB.source.mobility updateFromDisplayString true
par ManetprotocolsShowcaseB.source.interfaceTable typename "\"inet.networklayer.common.InterfaceTable\""
par ManetprotocolsShowcaseB.source.interfaceTable displayStringTextFormat "\"\""
attr mutable ""
par ManetprotocolsShowcaseB.source.interfaceTable displayAddresses false
par ManetprotocolsShowcaseB.source.cb typename "\"inet.common.MessageDispatcher\""
par ManetprotocolsShowcaseB.source.cb displayStringTextFormat "\"processed %p pk (%l)\""
attr mutable ""
par ManetprotocolsShowcaseB.source.cb interfaceTableModule "\"ManetprotocolsShowcaseB.source.interfaceTable\""
par ManetprotocolsShowcaseB.source.cb forwardServiceRegistration true
par ManetprotocolsShowcaseB.source.cb forwardProtocolRegistration true
par ManetprotocolsShowcaseB.source.cb interfaceMapping {}
par ManetprotocolsShowcaseB.source.cb serviceMapping {}
par ManetprotocolsShowcaseB.source.cb protocolMapping {}
par ManetprotocolsShowcaseB.source.bl typename "\"inet.common.MessageDispatcher\""
par ManetprotocolsShowcaseB.source.bl displayStringTextFormat "\"processed %p pk (%l)\""
attr mutable ""
par ManetprotocolsShowcaseB.source.bl interfaceTableModule "\"ManetprotocolsShowcaseB.source.interfaceTable\""
par ManetprotocolsShowcaseB.source.bl forwardServiceRegistration true
par ManetprotocolsShowcaseB.source.bl forwardProtocolRegistration true
par ManetprotocolsShowcaseB.source.bl interfaceMapping {}
par ManetprotocolsShowcaseB.source.bl serviceMapping {}
par ManetprotocolsShowcaseB.source.bl protocolMapping {}
par ManetprotocolsShowcaseB.source.li typename "\"inet.common.MessageDispatcher\""
par ManetprotocolsShowcaseB.source.li displayStringTextFormat "\"processed %p pk (%l)\""
attr mutable ""
par ManetprotocolsShowcaseB.source.li interfaceTableModule "\"ManetprotocolsShowcaseB.source.interfaceTable\""
par ManetprotocolsShowcaseB.source.li forwardServiceRegistration true
par ManetprotocolsShowcaseB.source.li forwardProtocolRegistration true
par ManetprotocolsShowcaseB.source.li interfaceMapping {}
par ManetprotocolsShowcaseB.source.li serviceMapping {}
par ManetprotocolsShowcaseB.source.li protocolMapping {}
par ManetprotocolsShowcaseB.source.lo[0].upperLayerIn.channel typename "\"ned.IdealChannel\""
par ManetprotocolsShowcaseB.source.lo[0].lo.upperLayerOut.channel typename "\"ned.IdealChannel\""
par ManetprotocolsShowcaseB.source.lo[0].lo typename "\"inet.linklayer.loopback.Loopback\""
par ManetprotocolsShowcaseB.source.lo[0].lo displayStringTextFormat "\"\""
attr mutable ""
par ManetprotocolsShowcaseB.source.lo[0].lo interfaceTableModule "\"ManetprotocolsShowcaseB.source.interfaceTable\""
par ManetprotocolsShowcaseB.source.lo[0].lo mtu 4470B
attr unit B
scalar ManetprotocolsShowcaseB.source.lo[0].lo rcvdPkFromHl:count 0
attr interpolationmode none
attr recordingmode count
attr source packetReceivedFromUpper
attr title "packets received from higher layer, count"
scalar ManetprotocolsShowcaseB.source.lo[0].lo rcvdPkFromHl:sum(packetBytes) 0
attr interpolationmode none
attr recordingmode sum(packetBytes)
attr source packetReceivedFromUpper
attr title "packets received from higher layer, sum(packetBytes)"
scalar ManetprotocolsShowcaseB.source.lo[0].lo passedUpPk:count 0
attr interpolationmode none
attr recordingmode count
attr source packetSentToUpper
attr title "packets passed to higher layer, count"
scalar ManetprotocolsShowcaseB.source.lo[0].lo passedUpPk:sum(packetBytes) 0
attr interpolationmode none
attr recordingmode sum(packetBytes)
attr source packetSentToUpper
attr title "packets passed to higher layer, sum(packetBytes)"
par ManetprotocolsShowcaseB.source.lo[0] typename "\"inet.linklayer.loopback.LoopbackInterface\""
par ManetprotocolsShowcaseB.source.lo[0] displayStringTextFormat "\"%a (%i)\\n%m\""
attr mutable ""
par ManetprotocolsShowcaseB.source.lo[0] recordPcap false
par ManetprotocolsShowcaseB.source.lo[0] numPcapRecorders 0
par ManetprotocolsShowcaseB.source.lo[0] interfaceTableModule "\"ManetprotocolsShowcaseB.source.interfaceTable\""
scalar ManetprotocolsShowcaseB.source.lo[0] packetDropInterfaceDown:count 0
attr interpolationmode none
attr recordingmode count
attr source packetDropReasonIsInterfaceDown(packetDropped)
attr title "packet drops: interface down, count"
scalar ManetprotocolsShowcaseB.source.lo[0] packetDropInterfaceDown:sum(packetBytes) 0
attr interpolationmode none
attr recordingmode sum(packetBytes)
attr source packetDropReasonIsInterfaceDown(packetDropped)
attr title "packet drops: interface down, sum(packetBytes)"
scalar ManetprotocolsShowcaseB.source.lo[0] packetDropNoCarrier:count 0
attr interpolationmode none
attr recordingmode count
attr source packetDropReasonIsNoCarrier(packetDropped)
attr title "packet drops: no carrier, count"
scalar ManetprotocolsShowcaseB.source.lo[0] packetDropNoCarrier:sum(packetBytes) 0
attr interpolationmode none
attr recordingmode sum(packetBytes)
attr source packetDropReasonIsNoCarrier(packetDropped)
attr title "packet drops: no carrier, sum(packetBytes)"
par ManetprotocolsShowcaseB.source.wlan[0].radioIn.channel typename "\"ned.IdealChannel\""
par ManetprotocolsShowcaseB.source.wlan[0].llc.upperLayerOut.channel typename "\"ned.IdealChannel\""
par ManetprotocolsShowcaseB.source.wlan[0].upperLayerIn.channel typename "\"ned.IdealChannel\""
par ManetprotocolsShowcaseB.source.wlan[0].mib typename "\"inet.linklayer.ieee80211.mib.Ieee80211Mib\""
par ManetprotocolsShowcaseB.source.wlan[0].mib displayStringTextFormat "\"\""
attr mutable ""
par ManetprotocolsShowcaseB.source.wlan[0].llc typename "\"inet.linklayer.ieee80211.llc.Ieee80211LlcLpd\""
par ManetprotocolsShowcaseB.source.wlan[0].llc displayStringTextFormat "\"\""
attr mutable ""
par ManetprotocolsShowcaseB.source.wlan[0].llc registerProtocol false
par ManetprotocolsShowcaseB.source.wlan[0].mgmt typename "\"inet.linklayer.ieee80211.mgmt.Ieee80211MgmtAdhoc\""
par ManetprotocolsShowcaseB.source.wlan[0].mgmt displayStringTextFormat "\"\""
attr mutable ""
par ManetprotocolsShowcaseB.source.wlan[0].mgmt mibModule "\"ManetprotocolsShowcaseB.source.wlan[0].mib\""
par ManetprotocolsShowcaseB.source.wlan[0].mgmt macModule "\"ManetprotocolsShowcaseB.source.wlan[0].mac\""
par ManetprotocolsShowcaseB.source.wlan[0].mgmt interfaceTableModule "\"ManetprotocolsShowcaseB.source.interfaceTable\""
par ManetprotocolsShowcaseB.source.wlan[0].mac.dcf.channelAccess.pendingQueue typename "\"inet.linklayer.ieee80211.mac.queue.PendingQueue\""
par ManetprotocolsShowcaseB.source.wlan[0].mac.dcf.channelAccess.pendingQueue displayStringTextFormat "\"contains %p pk (%l) pushed %u\\npulled %o removed %r dropped %d\""
attr mutable ""
par ManetprotocolsShowcaseB.source.wlan[0].mac.dcf.channelAccess.pendingQueue packetCapacity 100
par ManetprotocolsShowcaseB.source.wlan[0].mac.dcf.channelAccess.pendingQueue dataCapacity -1b
attr unit b
par ManetprotocolsShowcaseB.source.wlan[0].mac.dcf.channelAccess.pendingQueue dropperClass "\"inet::queueing::PacketAtCollectionEndDropper\""
par ManetprotocolsShowcaseB.source.wlan[0].mac.dcf.channelAccess.pendingQueue comparatorClass "\"inet::ieee80211::MgmtOverDataComparator\""
par ManetprotocolsShowcaseB.source.wlan[0].mac.dcf.channelAccess.pendingQueue bufferModule "\"\""
scalar ManetprotocolsShowcaseB.source.wlan[0].mac.dcf.channelAccess.pendingQueue queueLength:last 0
attr autoWarmupFilter false
attr interpolationmode sample-hold
attr recordingmode last
attr source "warmup(atomic(constant0(packetPushEnded) + count(packetPushStarted) - count(packetPulled) - count(packetRemoved) - count(packetDropped)))"
attr title "queue length, last"
attr unit pk
scalar ManetprotocolsShowcaseB.source.wlan[0].mac.dcf.channelAccess.pendingQueue queueLength:max 1
attr autoWarmupFilter false
attr interpolationmode sample-hold
attr recordingmode max
attr source "warmup(atomic(constant0(packetPushEnded) + count(packetPushStarted) - count(packetPulled) - count(packetRemoved) - count(packetDropped)))"
attr title "queue length, max"
attr unit pk
scalar ManetprotocolsShowcaseB.source.wlan[0].mac.dcf.channelAccess.pendingQueue queueLength:timeavg 0.000152014048295
attr autoWarmupFilter false
attr interpolationmode sample-hold
attr recordingmode timeavg
attr source "warmup(atomic(constant0(packetPushEnded) + count(packetPushStarted) - count(packetPulled) - count(packetRemoved) - count(packetDropped)))"
attr title "queue length, timeavg"
attr unit pk
scalar ManetprotocolsShowcaseB.source.wlan[0].mac.dcf.channelAccess.pendingQueue queueBitLength:last 0
attr autoWarmupFilter false
attr interpolationmode sample-hold
attr recordingmode last
attr source "warmup(atomic(constant0(packetPushEnded) + sum(packetLength(packetPushStarted)) - sum(packetLength(packetPulled)) - sum(packetLength(packetRemoved)) - sum(packetLength(packetDropped))))"
attr title "queue bit length, last"
attr unit b
scalar ManetprotocolsShowcaseB.source.wlan[0].mac.dcf.channelAccess.pendingQueue queueBitLength:max 960
attr autoWarmupFilter false
attr interpolationmode sample-hold
attr recordingmode max
attr source "warmup(atomic(constant0(packetPushEnded) + sum(packetLength(packetPushStarted)) - sum(packetLength(packetPulled)) - sum(packetLength(packetRemoved)) - sum(packetLength(packetDropped))))"
attr title "queue bit length, max"
attr unit b
scalar ManetprotocolsShowcaseB.source.wlan[0].mac.dcf.channelAccess.pendingQueue queueBitLength:timeavg 0.14387442749328
attr autoWarmupFilter false
attr interpolationmode sample-hold
attr recordingmode timeavg
attr source "warmup(atomic(constant0(packetPushEnded) + sum(packetLength(packetPushStarted)) - sum(packetLength(packetPulled)) - sum(packetLength(packetRemoved)) - sum(packetLength(packetDropped))))"
attr title "queue bit length, timeavg"
attr unit b
statistic ManetprotocolsShowcaseB.source.wlan[0].mac.dcf.channelAccess.pendingQueue queueingTime:histogram
field count 286
field mean 0.00010630353027622
field stddev 0.00021186750204161
field min 0
field max 0.000836257145
field sum 0.030402809659
field sqrsum 1.6024959947153e-05
attr interpolationmode none
attr recordingmode histogram
attr source queueingTime(packetPulled)
attr title "queueing times"
attr unit s
bin	-inf	0
bin	0	208
bin	2e-05	1
bin	4e-05	0
bin	6e-05	3
bin	8e-05	3
bin	0.0001	3
bin	0.00012	2
bin	0.00014	5
bin	0.00016	2
bin	0.00018	5
bin	0.0002	2
bin	0.00022	2
bin	0.00024	3
bin	0.00026	1
bin	0.00028	1
bin	0.0003	3
bin	0.00032	1
bin	0.00034	2
bin	0.00036	1
bin	0.00038	3
bin	0.0004	1
bin	0.00042	3
bin	0.00044	3
bin	0.00046	2
bin	0.00048	2
bin	0.0005	2
bin	0.00052	0
bin	0.00054	1
bin	0.00056	0
bin	0.00058	0
bin	0.0006	2
bin	0.00062	3
bin	0.00064	2
bin	0.00066	3
bin	0.00068	3
bin	0.0007	0
bin	0.00072	1
bin	0.00074	1
bin	0.00076	1
bin	0.00078	0
bin	0.0008	2
bin	0.00082	3
bin	0.00084	0
bin	0.00086	0
bin	0.00088	0
bin	0.0009	0
bin	0.00092	0
bin	0.00094	0
bin	0.00096	0
bin	0.00098	0
bin	0.001	0
bin	0.00102	0
bin	0.00104	0
scalar ManetprotocolsShowcaseB.source.wlan[0].mac.dcf.channelAccess.pendingQueue outgoingPackets:count 286
attr recordingmode count
attr source packetPulled
attr title "outgoing packets, count"
attr unit pk
scalar ManetprotocolsShowcaseB.source.wlan[0].mac.dcf.channelAccess.pendingQueue outgoingPacketLengths:sum 252672
attr interpolationmode none
attr recordingmode sum
attr source packetLength(packetPulled)
attr title "outgoing packet lengths, sum"
attr unit b
statistic ManetprotocolsShowcaseB.source.wlan[0].mac.dcf.channelAccess.pendingQueue outgoingPacketLengths:histogram
field count 286
field mean 883.46853146853
field stddev 119.34439647997
field min 608
field max 960
field sum 252672
field sqrsum 227287040
attr interpolationmode none
attr recordingmode histogram
attr source packetLength(packetPulled)
attr title "outgoing packet lengths"
attr unit b
bin	-inf	0
bin	520	0
bin	530	0
bin	540	0
bin	550	0
bin	560	0
bin	570	0
bin	580	0
bin	590	0
bin	600	3
bin	610	0
bin	620	0
bin	630	0
bin	640	0
bin	650	0
bin	660	0
bin	670	4
bin	680	0
bin	690	0
bin	700	76
bin	710	0
bin	720	0
bin	730	1
bin	740	0
bin	750	0
bin	760	0
bin	770	0
bin	780	0
bin	790	0
bin	800	0
bin	810	0
bin	820	0
bin	830	0
bin	840	0
bin	850	0
bin	860	0
bin	870	0
bin	880	0
bin	890	0
bin	900	0
bin	910	0
bin	920	0
bin	930	0
bin	940	0
bin	950	0
bin	960	202
bin	970	0
bin	980	0
bin	990	0
bin	1000	0
bin	1010	0
bin	1020	0
bin	1030	0
bin	1040	0
bin	1050	0
statistic ManetprotocolsShowcaseB.source.wlan[0].mac.dcf.channelAccess.pendingQueue flowQueueingTime:histogram
field count 0
field mean -nan
field stddev nan
field min nan
field max nan
field sum 0
field sqrsum 0
attr interpolationmode none
attr recordingmode histogram
attr source queueingTime(demuxFlow(packetPulled))
attr title "flow queueing times"
attr unit s
bin	-inf	0
bin	0	0
bin	1	0
scalar ManetprotocolsShowcaseB.source.wlan[0].mac.dcf.channelAccess.pendingQueue incomingPackets:count 286
attr recordingmode count
attr source packetPushStarted
attr title "incoming packets, count"
attr unit pk
scalar ManetprotocolsShowcaseB.source.wlan[0].mac.dcf.channelAccess.pendingQueue incomingPacketLengths:sum 252672
attr interpolationmode none
attr recordingmode sum
attr source packetLength(packetPushStarted)
attr title "incoming packet lengths, sum"
attr unit b
statistic ManetprotocolsShowcaseB.source.wlan[0].mac.dcf.channelAccess.pendingQueue incomingPacketLengths:histogram
field count 286
field mean 883.46853146853
field stddev 119.34439647997
field min 608
field max 960
field sum 252672
field sqrsum 227287040
attr interpolationmode none
attr recordingmode histogram
attr source packetLength(packetPushStarted)
attr title "incoming packet lengths"
attr unit b
bin	-inf	0
bin	520	0
bin	530	0
bin	540	0
bin	550	0
bin	560	0
bin	570	0
bin	580	0
bin	590	0
bin	600	3
bin	610	0
bin	620	0
bin	630	0
bin	640	0
bin	650	0
bin	660	0
bin	670	4
bin	680	0
bin	690	0
bin	700	76
bin	710	0
bin	720	0
bin	730	1
bin	740	0
bin	750	0
bin	760	0
bin	770	0
bin	780	0
bin	790	0
bin	800	0
bin	810	0
bin	820	0
bin	830	0
bin	840	0
bin	850	0
bin	860	0
bin	870	0
bin	880	0
bin	890	0
bin	900	0
bin	910	0
bin	920	0
bin	930	0
bin	940	0
bin	950	0
bin	960	202
bin	970	0
bin	980	0
bin	990	0
bin	1000	0
bin	1010	0
bin	1020	0
bin	1030	0
bin	1040	0
bin	1050	0
scalar ManetprotocolsShowcaseB.source.wlan[0].mac.dcf.channelAccess.pendingQueue droppedPacketsQueueOverflow:count 0
attr interpolationmode none
attr recordingmode count
attr source packetDropReasonIsQueueOverflow(packetDropped)
attr title "dropped packets: queue overflow, count"
attr unit pk
scalar ManetprotocolsShowcaseB.source.wlan[0].mac.dcf.channelAccess.pendingQueue droppedPacketLengthsQueueOverflow:sum 0
attr interpolationmode none
attr recordingmode sum
attr source packetLength(packetDropReasonIsQueueOverflow(packetDropped))
attr title "dropped packet lengths: queue overflow, sum"
attr unit b
par ManetprotocolsShowcaseB.source.wlan[0].mac.dcf.channelAccess.inProgressFrames typename "\"inet.linklayer.ieee80211.mac.queue.InProgressFrames\""
par ManetprotocolsShowcaseB.source.wlan[0].mac.dcf.channelAccess.inProgressFrames displayStringTextFormat "\"\""
attr mutable ""
par ManetprotocolsShowcaseB.source.wlan[0].mac.dcf.channelAccess.inProgressFrames pendingQueueModule "\"^.pendingQueue\""
par ManetprotocolsShowcaseB.source.wlan[0].mac.dcf.channelAccess.inProgressFrames originatorMacDataServiceModule "\"^.^.originatorMacDataService\""
par ManetprotocolsShowcaseB.source.wlan[0].mac.dcf.channelAccess.inProgressFrames ackHandlerModule "\"^.^.ackHandler\""
statistic ManetprotocolsShowcaseB.source.wlan[0].mac.dcf.channelAccess.inProgressFrames queueingTime:histogram
field count 286
field mean 0.00046706063127622
field stddev 0.0030224829807999
field min 5.4e-05
field max 0.029569
field sum 0.133579340545
field sqrsum 0.0026659796113495
attr interpolationmode none
attr recordingmode histogram
attr source queueingTime(packetDequeued)
attr title "queueing times"
bin	-inf	0
bin	0	277
bin	0.0005	4
bin	0.001	1
bin	0.0015	0
bin	0.002	0
bin	0.0025	0
bin	0.003	0
bin	0.0035	0
bin	0.004	0
bin	0.0045	0
bin	0.005	0
bin	0.0055	0
bin	0.006	0
bin	0.0065	0
bin	0.007	0
bin	0.0075	0
bin	0.008	0
bin	0.0085	0
bin	0.009	0
bin	0.0095	0
bin	0.01	0
bin	0.0105	0
bin	0.011	0
bin	0.0115	0
bin	0.012	0
bin	0.0125	0
bin	0.013	0
bin	0.0135	0
bin	0.014	0
bin	0.0145	0
bin	0.015	0
bin	0.0155	0
bin	0.016	0
bin	0.0165	0
bin	0.017	0
bin	0.0175	0
bin	0.018	0
bin	0.0185	0
bin	0.019	0
bin	0.0195	0
bin	0.02	0
bin	0.0205	0
bin	0.021	1
bin	0.0215	0
bin	0.022	0
bin	0.0225	1
bin	0.023	0
bin	0.0235	0
bin	0.024	0
bin	0.0245	0
bin	0.025	0
bin	0.0255	0
bin	0.026	0
bin	0.0265	0
bin	0.027	0
bin	0.0275	0
bin	0.028	0
bin	0.0285	1
bin	0.029	0
bin	0.0295	1
bin	0.03	0
bin	0.0305	0
bin	0.031	0
bin	0.0315	0
bin	0.032	0
bin	0.0325	0
bin	0.033	0
bin	0.0335	0
bin	0.034	0
bin	0.0345	0
bin	0.035	0
bin	0.0355	0
bin	0.036	0
scalar ManetprotocolsShowcaseB.source.wlan[0].mac.dcf.channelAccess.inProgressFrames queueLength:max 1
attr autoWarmupFilter false
attr interpolationmode sample-hold
attr recordingmode max
attr source "warmup(count(packetEnqueued) - count(packetDequeued))"
attr title "queue length, max"
scalar ManetprotocolsShowcaseB.source.wlan[0].mac.dcf.channelAccess.inProgressFrames queueLength:timeavg 0.000667896702725
attr autoWarmupFilter false
attr interpolationmode sample-hold
attr recordingmode timeavg
attr source "warmup(count(packetEnqueued) - count(packetDequeued))"
attr title "queue length, timeavg"
par ManetprotocolsShowcaseB.source.wlan[0].mac.dcf.channelAccess.contention typename "\"inet.linklayer.ieee80211.mac.contention.Contention\""
par ManetprotocolsShowcaseB.source.wlan[0].mac.dcf.channelAccess.contention displayStringTextFormat "\"\""
attr mutable ""
par ManetprotocolsShowcaseB.source.wlan[0].mac.dcf.channelAccess.contention initialChannelBusy true
par ManetprotocolsShowcaseB.source.wlan[0].mac.dcf.channelAccess.contention backoffOptimization true
scalar ManetprotocolsShowcaseB.source.wlan[0].mac.dcf.channelAccess.contention channelAccessGranted:count 315
attr recordingmode count
attr title "channel access granted, count"
scalar ManetprotocolsShowcaseB.source.wlan[0].mac.dcf.channelAccess.contention stateChanged:count 9366
attr enum IDLE,DEFER,IFS_AND_BACKOFF
attr interpolationmode none
attr recordingmode count
attr title "contention state changed, count"
attr type enum
par ManetprotocolsShowcaseB.source.wlan[0].mac.dcf.channelAccess typename "\"inet.linklayer.ieee80211.mac.channelaccess.Dcaf\""
par ManetprotocolsShowcaseB.source.wlan[0].mac.dcf.channelAccess displayStringTextFormat "\"\""
attr mutable ""
par ManetprotocolsShowcaseB.source.wlan[0].mac.dcf.channelAccess difsn -1
par ManetprotocolsShowcaseB.source.wlan[0].mac.dcf.channelAccess cwMin -1
par ManetprotocolsShowcaseB.source.wlan[0].mac.dcf.channelAccess cwMax -1
par ManetprotocolsShowcaseB.source.wlan[0].mac.dcf.channelAccess rxModule "\"^.^.rx\""
scalar ManetprotocolsShowcaseB.source.wlan[0].mac.dcf.channelAccess channelOwnershipChanged:count 630
attr interpolationmode sample-hold
attr recordingmode count
attr title "channel ownership, count"
par ManetprotocolsShowcaseB.source.wlan[0].mac.dcf.originatorMacDataService.fragmentationPolicy typename "\"inet.linklayer.ieee80211.mac.fragmentation.BasicFragmentationPolicy\""
par ManetprotocolsShowcaseB.source.wlan[0].mac.dcf.originatorMacDataService.fragmentationPolicy displayStringTextFormat "\"\""
attr mutable ""
par ManetprotocolsShowcaseB.source.wlan[0].mac.dcf.originatorMacDataService.fragmentationPolicy fragmentationThreshold 1500B
attr unit B
par ManetprotocolsShowcaseB.source.wlan[0].mac.dcf.originatorMacDataService typename "\"inet.linklayer.ieee80211.mac.originator.OriginatorMacDataService\""
par ManetprotocolsShowcaseB.source.wlan[0].mac.dcf.originatorMacDataService displayStringTextFormat "\"\""
attr mutable ""
scalar ManetprotocolsShowcaseB.source.wlan[0].mac.dcf.originatorMacDataService packetAggregated:count 0
attr recordingmode count
attr title "packets aggregated, count"
scalar ManetprotocolsShowcaseB.source.wlan[0].mac.dcf.originatorMacDataService packetFragmented:count 0
attr recordingmode count
attr title "packets fragmented, count"
par ManetprotocolsShowcaseB.source.wlan[0].mac.dcf.recipientMacDataService typename "\"inet.linklayer.ieee80211.mac.recipient.RecipientMacDataService\""
par ManetprotocolsShowcaseB.source.wlan[0].mac.dcf.recipientMacDataService displayStringTextFormat "\"\""
attr mutable ""
scalar ManetprotocolsShowcaseB.source.wlan[0].mac.dcf.recipientMacDataService packetDeaggregated:count 0
attr recordingmode count
attr title "packets deaggregated, count"
scalar ManetprotocolsShowcaseB.source.wlan[0].mac.dcf.recipientMacDataService packetDefragmented:count 635
attr recordingmode count
attr title "packets defragmented, count"
scalar ManetprotocolsShowcaseB.source.wlan[0].mac.dcf.recipientMacDataService packetDropDuplicateDetected:count 0
attr interpolationmode none
attr recordingmode count
attr source packetDropReasonIsDuplicateDetected(packetDropped)
attr title "packet drops: duplicate detected, count"
scalar ManetprotocolsShowcaseB.source.wlan[0].mac.dcf.recipientMacDataService packetDropDuplicateDetected:sum(packetBytes) 0
attr interpolationmode none
attr recordingmode sum(packetBytes)
attr source packetDropReasonIsDuplicateDetected(packetDropped)
attr title "packet drops: duplicate detected, sum(packetBytes)"
par ManetprotocolsShowcaseB.source.wlan[0].mac.dcf.rateSelection typename "\"inet.linklayer.ieee80211.mac.rateselection.RateSelection\""
par ManetprotocolsShowcaseB.source.wlan[0].mac.dcf.rateSelection displayStringTextFormat "\"\""
attr mutable ""
par ManetprotocolsShowcaseB.source.wlan[0].mac.dcf.rateSelection rateControlModule "\"^.rateControl\""
par ManetprotocolsShowcaseB.source.wlan[0].mac.dcf.rateSelection multicastFrameBitrate -1bps
attr unit bps
par ManetprotocolsShowcaseB.source.wlan[0].mac.dcf.rateSelection responseAckFrameBitrate -1bps
attr unit bps
par ManetprotocolsShowcaseB.source.wlan[0].mac.dcf.rateSelection responseCtsFrameBitrate -1bps
attr unit bps
par ManetprotocolsShowcaseB.source.wlan[0].mac.dcf.rateSelection dataFrameBitrate 2.4e+07bps
attr unit bps
par ManetprotocolsShowcaseB.source.wlan[0].mac.dcf.rateSelection dataFrameBandwidth "nan Hz"
attr unit Hz
par ManetprotocolsShowcaseB.source.wlan[0].mac.dcf.rateSelection dataFrameNumSpatialStreams -1
par ManetprotocolsShowcaseB.source.wlan[0].mac.dcf.rateSelection mgmtFrameBitrate -1bps
attr unit bps
par ManetprotocolsShowcaseB.source.wlan[0].mac.dcf.rateSelection controlFrameBitrate -1bps
attr unit bps
par ManetprotocolsShowcaseB.source.wlan[0].mac.dcf.recoveryProcedure typename "\"inet.linklayer.ieee80211.mac.originator.NonQosRecoveryProcedure\""
par ManetprotocolsShowcaseB.source.wlan[0].mac.dcf.recoveryProcedure displayStringTextFormat "\"\""
attr mutable ""
par ManetprotocolsShowcaseB.source.wlan[0].mac.dcf.recoveryProcedure cwCalculatorModule "\"^.channelAccess\""
par ManetprotocolsShowcaseB.source.wlan[0].mac.dcf.recoveryProcedure rtsPolicyModule "\"^.rtsPolicy\""
par ManetprotocolsShowcaseB.source.wlan[0].mac.dcf.recoveryProcedure shortRetryLimit 7
par ManetprotocolsShowcaseB.source.wlan[0].mac.dcf.recoveryProcedure longRetryLimit 4
scalar ManetprotocolsShowcaseB.source.wlan[0].mac.dcf.recoveryProcedure retryLimitReached:count 4
attr recordingmode count
attr title "retry limit reached, count"
par ManetprotocolsShowcaseB.source.wlan[0].mac.dcf.originatorProtectionMechanism typename "\"inet.linklayer.ieee80211.mac.protectionmechanism.OriginatorProtectionMechanism\""
par ManetprotocolsShowcaseB.source.wlan[0].mac.dcf.originatorProtectionMechanism displayStringTextFormat "\"\""
attr mutable ""
par ManetprotocolsShowcaseB.source.wlan[0].mac.dcf.originatorProtectionMechanism rateSelectionModule "\"^.rateSelection\""
par ManetprotocolsShowcaseB.source.wlan[0].mac.dcf.ackHandler typename "\"inet.linklayer.ieee80211.mac.originator.AckHandler\""
par ManetprotocolsShowcaseB.source.wlan[0].mac.dcf.ackHandler displayStringTextFormat "\"\""
attr mutable ""
par ManetprotocolsShowcaseB.source.wlan[0].mac.dcf.originatorAckPolicy typename "\"inet.linklayer.ieee80211.mac.originator.OriginatorAckPolicy\""
par ManetprotocolsShowcaseB.source.wlan[0].mac.dcf.originatorAckPolicy displayStringTextFormat "\"\""
attr mutable ""
par ManetprotocolsShowcaseB.source.wlan[0].mac.dcf.originatorAckPolicy rateSelectionModule "\"^.rateSelection\""
par ManetprotocolsShowcaseB.source.wlan[0].mac.dcf.originatorAckPolicy ackTimeout -1s
attr unit s
par ManetprotocolsShowcaseB.source.wlan[0].mac.dcf.recipientAckPolicy typename "\"inet.linklayer.ieee80211.mac.recipient.RecipientAckPolicy\""
par ManetprotocolsShowcaseB.source.wlan[0].mac.dcf.recipientAckPolicy displayStringTextFormat "\"\""
attr mutable ""
par ManetprotocolsShowcaseB.source.wlan[0].mac.dcf.recipientAckPolicy rateSelectionModule "\"^.rateSelection\""
par ManetprotocolsShowcaseB.source.wlan[0].mac.dcf.rtsPolicy typename "\"inet.linklayer.ieee80211.mac.originator.RtsPolicy\""
par ManetprotocolsShowcaseB.source.wlan[0].mac.dcf.rtsPolicy displayStringTextFormat "\"\""
attr mutable ""
par ManetprotocolsShowcaseB.source.wlan[0].mac.dcf.rtsPolicy rateSelectionModule "\"^.rateSelection\""
par ManetprotocolsShowcaseB.source.wlan[0].mac.dcf.rtsPolicy ctsTimeout -1s
attr unit s
par ManetprotocolsShowcaseB.source.wlan[0].mac.dcf.rtsPolicy rtsThreshold 2346B
attr unit B
par ManetprotocolsShowcaseB.source.wlan[0].mac.dcf.ctsPolicy typename "\"inet.linklayer.ieee80211.mac.recipient.CtsPolicy\""
par ManetprotocolsShowcaseB.source.wlan[0].mac.dcf.ctsPolicy displayStringTextFormat "\"\""
attr mutable ""
par ManetprotocolsShowcaseB.source.wlan[0].mac.dcf.ctsPolicy rxModule "\"^.^.rx\""
par ManetprotocolsShowcaseB.source.wlan[0].mac.dcf.ctsPolicy rateSelectionModule "\"^.rateSelection\""
par ManetprotocolsShowcaseB.source.wlan[0].mac.dcf typename "\"inet.linklayer.ieee80211.mac.coordinationfunction.Dcf\""
par ManetprotocolsShowcaseB.source.wlan[0].mac.dcf displayStringTextFormat "\"\""
attr mutable ""
par ManetprotocolsShowcaseB.source.wlan[0].mac.dcf rxModule "\"^.rx\""
par ManetprotocolsShowcaseB.source.wlan[0].mac.dcf txModule "\"^.tx\""
scalar ManetprotocolsShowcaseB.source.wlan[0].mac.dcf frameSequenceFinished:count 315
attr recordingmode count
attr title "finished frame sequences, count"
statistic ManetprotocolsShowcaseB.source.wlan[0].mac.dcf frameSequenceDuration:histogram
field count 315
field mean 0.00010137603422857
field stddev 2.584120768571e-05
field min 5.4e-05
field max 0.000125
field sum 0.031933450782
field sqrsum 3.4469657561144e-06
attr recordingmode histogram
attr source frameSequenceDuration(frameSequenceFinished)
attr title "frame sequence durations"
bin	-inf	0
bin	3.6e-05	0
bin	3.8e-05	0
bin	4e-05	0
bin	4.2e-05	0
bin	4.4e-05	0
bin	4.6e-05	0
bin	4.8e-05	0
bin	5e-05	0
bin	5.2e-05	3
bin	5.4e-05	0
bin	5.6e-05	78
bin	5.8e-05	0
bin	6e-05	0
bin	6.2e-05	0
bin	6.4e-05	0
bin	6.6e-05	0
bin	6.8e-05	0
bin	7e-05	0
bin	7.2e-05	0
bin	7.4e-05	0
bin	7.6e-05	0
bin	7.8e-05	0
bin	8e-05	0
bin	8.2e-05	0
bin	8.4e-05	0
bin	8.6e-05	0
bin	8.8e-05	0
bin	9e-05	0
bin	9.2e-05	0
bin	9.4e-05	0
bin	9.6e-05	0
bin	9.8e-05	0
bin	0.0001	0
bin	0.000102	3
bin	0.000104	0
bin	0.000106	0
bin	0.000108	0
bin	0.00011	0
bin	0.000112	2
bin	0.000114	198
bin	0.000116	0
bin	0.000118	0
bin	0.00012	0
bin	0.000122	0
bin	0.000124	31
bin	0.000126	0
bin	0.000128	0
bin	0.00013	0
bin	0.000132	0
bin	0.000134	0
bin	0.000136	0
bin	0.000138	0
bin	0.00014	0
bin	0.000142	0
bin	0.000144	0
statistic ManetprotocolsShowcaseB.source.wlan[0].mac.dcf frameSequenceNumPackets:histogram
field count 315
field mean 1.7428571428571
field stddev 0.43775421575605
field min 1
field max 2
field sum 549
field sqrsum 1017
attr recordingmode histogram
attr source frameSequenceNumPackets(frameSequenceFinished)
attr title "frame sequences: number of packets"
bin	-inf	0
bin	0	0
bin	1	81
bin	2	234
bin	3	0
scalar ManetprotocolsShowcaseB.source.wlan[0].mac.dcf packetReceivedFromPeer:count 836
attr interpolationmode none
attr recordingmode count
attr title "packets received, count"
scalar ManetprotocolsShowcaseB.source.wlan[0].mac.dcf packetReceivedFromPeer:sum(packetBytes) 64374
attr interpolationmode none
attr recordingmode sum(packetBytes)
attr title "packets received, sum(packetBytes)"
scalar ManetprotocolsShowcaseB.source.wlan[0].mac.dcf packetReceivedFromPeerUnicast:count 473
attr interpolationmode none
attr recordingmode count
attr source ieee80211Unicast(packetReceivedFromPeer)
attr title "packets received: unicast, count"
scalar ManetprotocolsShowcaseB.source.wlan[0].mac.dcf packetReceivedFromPeerUnicast:sum(packetBytes) 32466
attr interpolationmode none
attr recordingmode sum(packetBytes)
attr source ieee80211Unicast(packetReceivedFromPeer)
attr title "packets received: unicast, sum(packetBytes)"
scalar ManetprotocolsShowcaseB.source.wlan[0].mac.dcf packetReceivedFromPeerMulticast:count 363
attr interpolationmode none
attr recordingmode count
attr source ieee80211Multicast(packetReceivedFromPeer)
attr title "packets received: multicast, count"
scalar ManetprotocolsShowcaseB.source.wlan[0].mac.dcf packetReceivedFromPeerMulticast:sum(packetBytes) 31908
attr interpolationmode none
attr recordingmode sum(packetBytes)
attr source ieee80211Multicast(packetReceivedFromPeer)
attr title "packets received: multicast, sum(packetBytes)"
scalar ManetprotocolsShowcaseB.source.wlan[0].mac.dcf packetReceivedFromPeerBroadcast:count 363
attr interpolationmode none
attr recordingmode count
attr source ieee80211Broadcast(packetReceivedFromPeer)
attr title "packets received: broadcast, count"
scalar ManetprotocolsShowcaseB.source.wlan[0].mac.dcf packetReceivedFromPeerBroadcast:sum(packetBytes) 31908
attr interpolationmode none
attr recordingmode sum(packetBytes)
attr source ieee80211Broadcast(packetReceivedFromPeer)
attr title "packets received: broadcast, sum(packetBytes)"
scalar ManetprotocolsShowcaseB.source.wlan[0].mac.dcf packetReceivedFromPeerWithRetry:count 2
attr interpolationmode none
attr recordingmode count
attr source ieee80211Retry(packetReceivedFromPeer)
attr title "packets received: with retry, count"
scalar ManetprotocolsShowcaseB.source.wlan[0].mac.dcf packetReceivedFromPeerWithRetry:sum(packetBytes) 168
attr interpolationmode none
attr recordingmode sum(packetBytes)
attr source ieee80211Retry(packetReceivedFromPeer)
attr title "packets received: with retry, sum(packetBytes)"
scalar ManetprotocolsShowcaseB.source.wlan[0].mac.dcf packetReceivedFromPeerWithoutRetry:count 834
attr interpolationmode none
attr recordingmode count
attr source ieee80211NotRetry(packetReceivedFromPeer)
attr title "packets received: without retry, count"
scalar ManetprotocolsShowcaseB.source.wlan[0].mac.dcf packetReceivedFromPeerWithoutRetry:sum(packetBytes) 64206
attr interpolationmode none
attr recordingmode sum(packetBytes)
attr source ieee80211NotRetry(packetReceivedFromPeer)
attr title "packets received: without retry, sum(packetBytes)"
scalar ManetprotocolsShowcaseB.source.wlan[0].mac.dcf packetSentToPeer:count 587
attr interpolationmode none
attr recordingmode count
attr title "packets sent, count"
scalar ManetprotocolsShowcaseB.source.wlan[0].mac.dcf packetSentToPeer:sum(packetBytes) 38800
attr interpolationmode none
attr recordingmode sum(packetBytes)
attr title "packets sent, sum(packetBytes)"
scalar ManetprotocolsShowcaseB.source.wlan[0].mac.dcf packetSentToPeerUnicast:count 506
attr interpolationmode none
attr recordingmode count
attr source ieee80211Unicast(packetSentToPeer)
attr title "packets sent: unicast, count"
scalar ManetprotocolsShowcaseB.source.wlan[0].mac.dcf packetSentToPeerUnicast:sum(packetBytes) 31708
attr interpolationmode none
attr recordingmode sum(packetBytes)
attr source ieee80211Unicast(packetSentToPeer)
attr title "packets sent: unicast, sum(packetBytes)"
scalar ManetprotocolsShowcaseB.source.wlan[0].mac.dcf packetSentToPeerMulticast:count 81
attr interpolationmode none
attr recordingmode count
attr source ieee80211Multicast(packetSentToPeer)
attr title "packets sent: multicast, count"
scalar ManetprotocolsShowcaseB.source.wlan[0].mac.dcf packetSentToPeerMulticast:sum(packetBytes) 7092
attr interpolationmode none
attr recordingmode sum(packetBytes)
attr source ieee80211Multicast(packetSentToPeer)
attr title "packets sent: multicast, sum(packetBytes)"
scalar ManetprotocolsShowcaseB.source.wlan[0].mac.dcf packetSentToPeerBroadcast:count 81
attr interpolationmode none
attr recordingmode count
attr source ieee80211Broadcast(packetSentToPeer)
attr title "packets sent: broadcast , count"
scalar ManetprotocolsShowcaseB.source.wlan[0].mac.dcf packetSentToPeerBroadcast:sum(packetBytes) 7092
attr interpolationmode none
attr recordingmode sum(packetBytes)
attr source ieee80211Broadcast(packetSentToPeer)
attr title "packets sent: broadcast , sum(packetBytes)"
scalar ManetprotocolsShowcaseB.source.wlan[0].mac.dcf packetSentToPeerWithRetry:count 29
attr interpolationmode none
attr recordingmode count
attr source ieee80211Retry(packetSentToPeer)
attr title "packets sent: with retry, count"
scalar ManetprotocolsShowcaseB.source.wlan[0].mac.dcf packetSentToPeerWithRetry:sum(packetBytes) 3408
attr interpolationmode none
attr recordingmode sum(packetBytes)
attr source ieee80211Retry(packetSentToPeer)
attr title "packets sent: with retry, sum(packetBytes)"
scalar ManetprotocolsShowcaseB.source.wlan[0].mac.dcf packetSentToPeerWithoutRetry:count 558
attr interpolationmode none
attr recordingmode count
attr source ieee80211NotRetry(packetSentToPeer)
attr title "packets sent: without retry, count"
scalar ManetprotocolsShowcaseB.source.wlan[0].mac.dcf packetSentToPeerWithoutRetry:sum(packetBytes) 35392
attr interpolationmode none
attr recordingmode sum(packetBytes)
attr source ieee80211NotRetry(packetSentToPeer)
attr title "packets sent: without retry, sum(packetBytes)"
scalar ManetprotocolsShowcaseB.source.wlan[0].mac.dcf packetDrop:count 549
attr interpolationmode none
attr recordingmode count
attr source packetDropped
attr title "packet drops, count"
scalar ManetprotocolsShowcaseB.source.wlan[0].mac.dcf packetDrop:sum(packetBytes) 35804
attr interpolationmode none
attr recordingmode sum(packetBytes)
attr source packetDropped
attr title "packet drops, sum(packetBytes)"
scalar ManetprotocolsShowcaseB.source.wlan[0].mac.dcf packetDropNotAddressedToUs:count 545
attr interpolationmode none
attr recordingmode count
attr source packetDropReasonIsNotAddressedToUs(packetDropped)
attr title "packet drops: not addressed to us, count"
scalar ManetprotocolsShowcaseB.source.wlan[0].mac.dcf packetDropNotAddressedToUs:sum(packetBytes) 35324
attr interpolationmode none
attr recordingmode sum(packetBytes)
attr source packetDropReasonIsNotAddressedToUs(packetDropped)
attr title "packet drops: not addressed to us, sum(packetBytes)"
scalar ManetprotocolsShowcaseB.source.wlan[0].mac.dcf packetDropQueueOverflow:count 0
attr interpolationmode none
attr recordingmode count
attr source packetDropReasonIsQueueOverflow(packetDropped)
attr title "packet drops: queue overflow, count"
scalar ManetprotocolsShowcaseB.source.wlan[0].mac.dcf packetDropQueueOverflow:sum(packetBytes) 0
attr interpolationmode none
attr recordingmode sum(packetBytes)
attr source packetDropReasonIsQueueOverflow(packetDropped)
attr title "packet drops: queue overflow, sum(packetBytes)"
scalar ManetprotocolsShowcaseB.source.wlan[0].mac.dcf packetDropRetryLimitReached:count 4
attr interpolationmode none
attr recordingmode count
attr source packetDropReasonIsRetryLimitReached(packetDropped)
attr title "packet drops: retry limit reached, count"
scalar ManetprotocolsShowcaseB.source.wlan[0].mac.dcf packetDropRetryLimitReached:sum(packetBytes) 480
attr interpolationmode none
attr recordingmode sum(packetBytes)
attr source packetDropReasonIsRetryLimitReached(packetDropped)
attr title "packet drops: retry limit reached, sum(packetBytes)"
scalar ManetprotocolsShowcaseB.source.wlan[0].mac.dcf linkBroken:count 4
attr interpolationmode none
attr recordingmode count
attr title "link breaks, count"
par ManetprotocolsShowcaseB.source.wlan[0].mac.ds typename "\"inet.linklayer.ieee80211.mac.Ds\""
par ManetprotocolsShowcaseB.source.wlan[0].mac.ds displayStringTextFormat "\"\""
attr mutable ""
par ManetprotocolsShowcaseB.source.wlan[0].mac.ds mibModule "\"ManetprotocolsShowcaseB.source.wlan[0].mib\""
par ManetprotocolsShowcaseB.source.wlan[0].mac.rx typename "\"inet.linklayer.ieee80211.mac.Rx\""
par ManetprotocolsShowcaseB.source.wlan[0].mac.rx displayStringTextFormat "\"\""
attr mutable ""
par ManetprotocolsShowcaseB.source.wlan[0].mac.tx typename "\"inet.linklayer.ieee80211.mac.Tx\""
par ManetprotocolsShowcaseB.source.wlan[0].mac.tx displayStringTextFormat "\"\""
attr mutable ""
par ManetprotocolsShowcaseB.source.wlan[0].mac.tx rxModule "\"^.rx\""
par ManetprotocolsShowcaseB.source.wlan[0].mac typename "\"inet.linklayer.ieee80211.mac.Ieee80211Mac\""
par ManetprotocolsShowcaseB.source.wlan[0].mac displayStringTextFormat "\"\""
attr mutable ""
par ManetprotocolsShowcaseB.source.wlan[0].mac interfaceTableModule "\"ManetprotocolsShowcaseB.source.interfaceTable\""
par ManetprotocolsShowcaseB.source.wlan[0].mac mibModule "\"ManetprotocolsShowcaseB.source.wlan[0].mib\""
par ManetprotocolsShowcaseB.source.wlan[0].mac modeSet "\"g(mixed)\""
attr enum a,b,g(erp),g(mixed),n(mixed-2.4Ghz),p,ac
par ManetprotocolsShowcaseB.source.wlan[0].mac fcsMode "\"declared\""
attr enum declared,computed
par ManetprotocolsShowcaseB.source.wlan[0].mac initialRadioMode "\"receiver\""
attr enum off,sleep,receiver,transmitter,transceiver
par ManetprotocolsShowcaseB.source.wlan[0].mac mtu 2304B
attr unit B
par ManetprotocolsShowcaseB.source.wlan[0].mac qosStation false
scalar ManetprotocolsShowcaseB.source.wlan[0].mac packetReceivedFromLower:count 1387
attr interpolationmode none
attr recordingmode count
attr title "packets received from lower layer, count"
scalar ManetprotocolsShowcaseB.source.wlan[0].mac packetReceivedFromLower:sum(packetBytes) 100222
attr interpolationmode none
attr recordingmode sum(packetBytes)
attr title "packets received from lower layer, sum(packetBytes)"
scalar ManetprotocolsShowcaseB.source.wlan[0].mac packetSentToLower:count 587
attr interpolationmode none
attr recordingmode count
attr title "packets sent to lower layer, count"
scalar ManetprotocolsShowcaseB.source.wlan[0].mac packetSentToLower:sum(packetBytes) 38800
attr interpolationmode none
attr recordingmode sum(packetBytes)
attr title "packets sent to lower layer, sum(packetBytes)"
scalar ManetprotocolsShowcaseB.source.wlan[0].mac packetReceivedFromUpper:count 286
attr interpolationmode none
attr recordingmode count
attr title "packets received from upper layer, count"
scalar ManetprotocolsShowcaseB.source.wlan[0].mac packetReceivedFromUpper:sum(packetBytes) 23576
attr interpolationmode none
attr recordingmode sum(packetBytes)
attr title "packets received from upper layer, sum(packetBytes)"
scalar ManetprotocolsShowcaseB.source.wlan[0].mac packetSentToUpper:count 635
attr interpolationmode none
attr recordingmode count
attr title "packets sent to upper layer, count"
scalar ManetprotocolsShowcaseB.source.wlan[0].mac packetSentToUpper:sum(packetBytes) 43780
attr interpolationmode none
attr recordingmode sum(packetBytes)
attr title "packets sent to upper layer, sum(packetBytes)"
scalar ManetprotocolsShowcaseB.source.wlan[0].mac packetDrop:count 555
attr interpolationmode none
attr recordingmode count
attr source packetDropped
attr title "packet drops, count"
scalar ManetprotocolsShowcaseB.source.wlan[0].mac packetDrop:sum(packetBytes) 36328
attr interpolationmode none
attr recordingmode sum(packetBytes)
attr source packetDropped
attr title "packet drops, sum(packetBytes)"
scalar ManetprotocolsShowcaseB.source.wlan[0].mac packetDropIncorrectlyReceived:count 6
attr interpolationmode none
attr recordingmode count
attr source packetDropReasonIsIncorrectlyReceived(packetDropped)
attr title "packet drops: incorrectly received, count"
scalar ManetprotocolsShowcaseB.source.wlan[0].mac packetDropIncorrectlyReceived:sum(packetBytes) 524
attr interpolationmode none
attr recordingmode sum(packetBytes)
attr source packetDropReasonIsIncorrectlyReceived(packetDropped)
attr title "packet drops: incorrectly received, sum(packetBytes)"
scalar ManetprotocolsShowcaseB.source.wlan[0].mac packetDropNotAddressedToUs:count 545
attr interpolationmode none
attr recordingmode count
attr source packetDropReasonIsNotAddressedToUs(packetDropped)
attr title "packet drops: not addressed to us, count"
scalar ManetprotocolsShowcaseB.source.wlan[0].mac packetDropNotAddressedToUs:sum(packetBytes) 35324
attr interpolationmode none
attr recordingmode sum(packetBytes)
attr source packetDropReasonIsNotAddressedToUs(packetDropped)
attr title "packet drops: not addressed to us, sum(packetBytes)"
scalar ManetprotocolsShowcaseB.source.wlan[0].mac packetDropQueueOverflow:count 0
attr interpolationmode none
attr recordingmode count
attr source packetDropReasonIsQueueOverflow(packetDropped)
attr title "packet drops: queue overflow, count"
scalar ManetprotocolsShowcaseB.source.wlan[0].mac packetDropQueueOverflow:sum(packetBytes) 0
attr interpolationmode none
attr recordingmode sum(packetBytes)
attr source packetDropReasonIsQueueOverflow(packetDropped)
attr title "packet drops: queue overflow, sum(packetBytes)"
scalar ManetprotocolsShowcaseB.source.wlan[0].mac packetDropRetryLimitReached:count 4
attr interpolationmode none
attr recordingmode count
attr source packetDropReasonIsRetryLimitReached(packetDropped)
attr title "packet drops: retry limit reached, count"
scalar ManetprotocolsShowcaseB.source.wlan[0].mac packetDropRetryLimitReached:sum(packetBytes) 480
attr interpolationmode none
attr recordingmode sum(packetBytes)
attr source packetDropReasonIsRetryLimitReached(packetDropped)
attr title "packet drops: retry limit reached, sum(packetBytes)"
scalar ManetprotocolsShowcaseB.source.wlan[0].mac packetDropDuplicateDetected:count 0
attr interpolationmode none
attr recordingmode count
attr source packetDropReasonIsDuplicateDetected(packetDropped)
attr title "packet drops: duplicate detected, count"
scalar ManetprotocolsShowcaseB.source.wlan[0].mac packetDropDuplicateDetected:sum(packetBytes) 0
attr interpolationmode none
attr recordingmode sum(packetBytes)
attr source packetDropReasonIsDuplicateDetected(packetDropped)
attr title "packet drops: duplicate detected, sum(packetBytes)"
scalar ManetprotocolsShowcaseB.source.wlan[0].mac packetDropOther:count 0
attr interpolationmode none
attr recordingmode count
attr source packetDropReasonIsOther(packetDropped)
attr title "packet drops: other, count"
scalar ManetprotocolsShowcaseB.source.wlan[0].mac packetDropOther:sum(packetBytes) 0
attr interpolationmode none
attr recordingmode sum(packetBytes)
attr source packetDropReasonIsOther(packetDropped)
attr title "packet drops: other, sum(packetBytes)"
scalar ManetprotocolsShowcaseB.source.wlan[0].mac linkBroken:count 4
attr interpolationmode none
attr recordingmode count
attr title "link breaks, count"
par ManetprotocolsShowcaseB.source.wlan[0].radio.antenna typename "\"inet.physicallayer.wireless.common.antenna.IsotropicAntenna\""
par ManetprotocolsShowcaseB.source.wlan[0].radio.antenna displayStringTextFormat "\"\""
attr mutable ""
par ManetprotocolsShowcaseB.source.wlan[0].radio.antenna mobilityModule "\"^.^.^.mobility\""
par ManetprotocolsShowcaseB.source.wlan[0].radio.antenna numAntennas 1
par ManetprotocolsShowcaseB.source.wlan[0].radio.transmitter.analogModel typename "\"inet.physicallayer.wireless.common.analogmodel.unitdisk.UnitDiskTransmitterAnalogModel\""
par ManetprotocolsShowcaseB.source.wlan[0].radio.transmitter.analogModel displayStringTextFormat "\"\""
attr mutable ""
par ManetprotocolsShowcaseB.source.wlan[0].radio.transmitter.analogModel communicationRange 300m
attr unit m
par ManetprotocolsShowcaseB.source.wlan[0].radio.transmitter.analogModel interferenceRange 300m
attr unit m
par ManetprotocolsShowcaseB.source.wlan[0].radio.transmitter.analogModel detectionRange 300m
attr unit m
par ManetprotocolsShowcaseB.source.wlan[0].radio.transmitter typename "\"inet.physicallayer.wireless.ieee80211.packetlevel.Ieee80211Transmitter\""
par ManetprotocolsShowcaseB.source.wlan[0].radio.transmitter displayStringTextFormat "\"\""
attr mutable ""
par ManetprotocolsShowcaseB.source.wlan[0].radio.transmitter signalAnalogRepresentation "\"unitDisk\""
attr enum unitDisk,scalar,dimensional
par ManetprotocolsShowcaseB.source.wlan[0].radio.transmitter preambleDuration -1s
attr unit s
par ManetprotocolsShowcaseB.source.wlan[0].radio.transmitter headerLength 192b
attr unit b
par ManetprotocolsShowcaseB.source.wlan[0].radio.transmitter bitrate 2.4e+07bps
attr unit bps
par ManetprotocolsShowcaseB.source.wlan[0].radio.transmitter power 0.001W
attr unit W
par ManetprotocolsShowcaseB.source.wlan[0].radio.transmitter centerFrequency 2.412e+09Hz
attr unit Hz
par ManetprotocolsShowcaseB.source.wlan[0].radio.transmitter bandwidth "nan Hz"
attr unit Hz
par ManetprotocolsShowcaseB.source.wlan[0].radio.transmitter codeRate 1
par ManetprotocolsShowcaseB.source.wlan[0].radio.transmitter modulation "\"BPSK\""
par ManetprotocolsShowcaseB.source.wlan[0].radio.transmitter opMode "\"g(mixed)\""
attr enum a,b,g(erp),g(mixed),n(mixed-2.4Ghz),p,ac
par ManetprotocolsShowcaseB.source.wlan[0].radio.transmitter bandName "\"2.4 GHz\""
attr enum "2.4 GHz,5 GHz,5 GHz (20 MHz),5 GHz (40 MHz),5 GHz (80 MHz),5 GHz (160 MHz),5.9 GHz"
par ManetprotocolsShowcaseB.source.wlan[0].radio.transmitter channelNumber 0
par ManetprotocolsShowcaseB.source.wlan[0].radio.receiver.analogModel typename "\"inet.physicallayer.wireless.common.analogmodel.unitdisk.UnitDiskReceiverAnalogModel\""
par ManetprotocolsShowcaseB.source.wlan[0].radio.receiver.analogModel displayStringTextFormat "\"\""
attr mutable ""
par ManetprotocolsShowcaseB.source.wlan[0].radio.receiver.analogModel ignoreInterference false
par ManetprotocolsShowcaseB.source.wlan[0].radio.receiver typename "\"inet.physicallayer.wireless.ieee80211.packetlevel.Ieee80211Receiver\""
par ManetprotocolsShowcaseB.source.wlan[0].radio.receiver displayStringTextFormat "\"\""
attr mutable ""
par ManetprotocolsShowcaseB.source.wlan[0].radio.receiver ignoreInterference false
par ManetprotocolsShowcaseB.source.wlan[0].radio.receiver signalAnalogRepresentation "\"unitDisk\""
attr enum unitDisk,scalar,dimensional
par ManetprotocolsShowcaseB.source.wlan[0].radio.receiver snirThreshold 4dB
attr unit dB
par ManetprotocolsShowcaseB.source.wlan[0].radio.receiver snirThresholdMode "\"min\""
attr enum min,mean
par ManetprotocolsShowcaseB.source.wlan[0].radio.receiver energyDetection -85dBm
attr unit dBm
par ManetprotocolsShowcaseB.source.wlan[0].radio.receiver sensitivity -85dBm
attr unit dBm
par ManetprotocolsShowcaseB.source.wlan[0].radio.receiver centerFrequency 2.412e+09Hz
attr unit Hz
par ManetprotocolsShowcaseB.source.wlan[0].radio.receiver bandwidth 2.2e+07Hz
attr unit Hz
par ManetprotocolsShowcaseB.source.wlan[0].radio.receiver modulation "\"BPSK\""
par ManetprotocolsShowcaseB.source.wlan[0].radio.receiver opMode "\"g(mixed)\""
attr enum a,b,g(erp),g(mixed),n(mixed-2.4Ghz),p,ac
par ManetprotocolsShowcaseB.source.wlan[0].radio.receiver bandName "\"2.4 GHz\""
attr enum "2.4 GHz,5 GHz,5 GHz (20 MHz),5 GHz (40 MHz),5 GHz (80 MHz),5 GHz (160 MHz),5.9 GHz"
par ManetprotocolsShowcaseB.source.wlan[0].radio.receiver channelNumber 0
par ManetprotocolsShowcaseB.source.wlan[0].radio typename "\"inet.physicallayer.wireless.ieee80211.packetlevel.Ieee80211Radio\""
par ManetprotocolsShowcaseB.source.wlan[0].radio displayStringTextFormat "\"\""
attr mutable ""
par ManetprotocolsShowcaseB.source.wlan[0].radio radioMediumModule "\"radioMedium\""
par ManetprotocolsShowcaseB.source.wlan[0].radio energySourceModule "\"\""
par ManetprotocolsShowcaseB.source.wlan[0].radio initialRadioMode "\"off\""
attr enum off,sleep,receiver,transmitter,transceiver
par ManetprotocolsShowcaseB.source.wlan[0].radio switchingTimes "\"ms 0 0 0 0 0 0 0 0 0 0 0 0 0 0 0 0 0 0 0 0 0 0 0 0 0\""
par ManetprotocolsShowcaseB.source.wlan[0].radio sendRawBytes false
par ManetprotocolsShowcaseB.source.wlan[0].radio separateTransmissionParts false
par ManetprotocolsShowcaseB.source.wlan[0].radio separateReceptionParts false
par ManetprotocolsShowcaseB.source.wlan[0].radio displayCommunicationRange true
par ManetprotocolsShowcaseB.source.wlan[0].radio displayInterferenceRange false
par ManetprotocolsShowcaseB.source.wlan[0].radio signalAnalogRepresentation "\"unitDisk\""
attr enum unitDisk,scalar,dimensional
par ManetprotocolsShowcaseB.source.wlan[0].radio centerFrequency 2.412e+09Hz
attr unit Hz
par ManetprotocolsShowcaseB.source.wlan[0].radio bandwidth "nan Hz"
attr unit Hz
par ManetprotocolsShowcaseB.source.wlan[0].radio opMode "\"g(mixed)\""
attr enum a,b,g(erp),g(mixed),n(mixed-2.4Ghz),p,ac
par ManetprotocolsShowcaseB.source.wlan[0].radio bandName "\"2.4 GHz\""
attr enum "2.4 GHz,5 GHz,5 GHz (20 MHz),5 GHz (40 MHz),5 GHz (80 MHz),5 GHz (160 MHz),5.9 GHz"
par ManetprotocolsShowcaseB.source.wlan[0].radio channelNumber 0
par ManetprotocolsShowcaseB.source.wlan[0].radio fcsMode "\"declared\""
attr enum declared,computed
statistic ManetprotocolsShowcaseB.source.wlan[0].radio radioChannel:histogram
field count 1
field mean 0
field stddev nan
field min 0
field max 0
field sum 0
field sqrsum 0
attr interpolationmode sample-hold
attr recordingmode histogram
attr source radioChannelChanged
attr title "Radio channel"
bin	-inf	0
bin	-0.5	0
bin	-0.48	0
bin	-0.46	0
bin	-0.44	0
bin	-0.42	0
bin	-0.4	0
bin	-0.38	0
bin	-0.36	0
bin	-0.34	0
bin	-0.32	0
bin	-0.3	0
bin	-0.28	0
bin	-0.26	0
bin	-0.24	0
bin	-0.22	0
bin	-0.2	0
bin	-0.18	0
bin	-0.16	0
bin	-0.14	0
bin	-0.12	0
bin	-0.1	0
bin	-0.08	0
bin	-0.06	0
bin	-0.04	0
bin	-0.02	0
bin	0	1
bin	0.02	0
bin	0.04	0
bin	0.06	0
bin	0.08	0
bin	0.1	0
bin	0.12	0
bin	0.14	0
bin	0.16	0
bin	0.18	0
bin	0.2	0
bin	0.22	0
bin	0.24	0
bin	0.26	0
bin	0.28	0
bin	0.3	0
bin	0.32	0
bin	0.34	0
bin	0.36	0
bin	0.38	0
bin	0.4	0
bin	0.42	0
bin	0.44	0
bin	0.46	0
bin	0.48	0
bin	0.5	0
scalar ManetprotocolsShowcaseB.source.wlan[0].radio radioMode:count 1177
attr enum OFF,SLEEP,RECEIVER,TRANSMITTER,TRANSCEIVER,SWITCHING
attr interpolationmode sample-hold
attr recordingmode count
attr source radioModeChanged
attr title "Radio mode, count"
attr type enum
scalar ManetprotocolsShowcaseB.source.wlan[0].radio receptionState:count 3954
attr enum UNDEFINED,IDLE,BUSY,RECEIVING
attr interpolationmode sample-hold
attr recordingmode count
attr source receptionStateChanged
attr title "Radio reception state, count"
attr type enum
scalar ManetprotocolsShowcaseB.source.wlan[0].radio transmissionState:count 2348
attr enum UNDEFINED,IDLE,TRANSMITTING
attr interpolationmode sample-hold
attr recordingmode count
attr source transmissionStateChanged
attr title "Radio transmission state, count"
attr type enum
statistic ManetprotocolsShowcaseB.source.wlan[0].radio minSnir:histogram
field count 1387
field mean inf
field stddev -nan
field min 0
field max inf
field sum inf
field sqrsum inf
attr recordingmode histogram
attr source minimumSnir(packetSentToUpper)
attr title "Min SNIR"
bin	-inf	0
bin	-0.5	0
bin	-0.48	0
bin	-0.46	0
bin	-0.44	0
bin	-0.42	0
bin	-0.4	0
bin	-0.38	0
bin	-0.36	0
bin	-0.34	0
bin	-0.32	0
bin	-0.3	0
bin	-0.28	0
bin	-0.26	0
bin	-0.24	0
bin	-0.22	0
bin	-0.2	0
bin	-0.18	0
bin	-0.16	0
bin	-0.14	0
bin	-0.12	0
bin	-0.1	0
bin	-0.08	0
bin	-0.06	0
bin	-0.04	0
bin	-0.02	0
bin	0	6
bin	0.02	0
bin	0.04	0
bin	0.06	0
bin	0.08	0
bin	0.1	0
bin	0.12	0
bin	0.14	0
bin	0.16	0
bin	0.18	0
bin	0.2	0
bin	0.22	0
bin	0.24	0
bin	0.26	0
bin	0.28	0
bin	0.3	0
bin	0.32	0
bin	0.34	0
bin	0.36	0
bin	0.38	0
bin	0.4	0
bin	0.42	0
bin	0.44	0
bin	0.46	0
bin	0.48	0
bin	0.5	1381
statistic ManetprotocolsShowcaseB.source.wlan[0].radio packetErrorRate:histogram
field count 1387
field mean 0.0043258832011536
field stddev 0.065652704147657
field min 0
field max 1
field sum 6
field sqrsum 6
attr recordingmode histogram
attr source packetErrorRate(packetSentToUpper)
attr title "Packet error rate"
bin	-inf	0
bin	0	1381
bin	1	6
bin	2	0
statistic ManetprotocolsShowcaseB.source.wlan[0].radio bitErrorRate:histogram
field count 1387
field mean 0.0043258832011536
field stddev 0.065652704147657
field min 0
field max 1
field sum 6
field sqrsum 6
attr recordingmode histogram
attr source bitErrorRate(packetSentToUpper)
attr title "Bit error rate"
bin	-inf	0
bin	0	1381
bin	1	6
bin	2	0
statistic ManetprotocolsShowcaseB.source.wlan[0].radio symbolErrorRate:histogram
field count 1387
field mean 0.0043258832011536
field stddev 0.065652704147657
field min 0
field max 1
field sum 6
field sqrsum 6
attr recordingmode histogram
attr source symbolErrorRate(packetSentToUpper)
attr title "Symbol error rate"
bin	-inf	0
bin	0	1381
bin	1	6
bin	2	0
par ManetprotocolsShowcaseB.source.wlan[0] typename "\"inet.linklayer.ieee80211.Ieee80211Interface\""
par ManetprotocolsShowcaseB.source.wlan[0] displayStringTextFormat "\"%a (%i)\\n%m\""
attr mutable ""
par ManetprotocolsShowcaseB.source.wlan[0] recordPcap false
par ManetprotocolsShowcaseB.source.wlan[0] numPcapRecorders 0
par ManetprotocolsShowcaseB.source.wlan[0] interfaceTableModule "\"ManetprotocolsShowcaseB.source.interfaceTable\""
par ManetprotocolsShowcaseB.source.wlan[0] energySourceModule "\"\""
par ManetprotocolsShowcaseB.source.wlan[0] opMode "\"g(mixed)\""
attr enum a,b,g(erp),g(mixed),n(mixed-2.4Ghz),p,ac
par ManetprotocolsShowcaseB.source.wlan[0] address "\"0A-AA-00-00-00-01\""
attr mutable ""
par ManetprotocolsShowcaseB.source.wlan[0] protocol "\"\""
par ManetprotocolsShowcaseB.source.wlan[0] bitrate 2.4e+07bps
attr unit bps
scalar ManetprotocolsShowcaseB.source.wlan[0] packetDropInterfaceDown:count 0
attr interpolationmode none
attr recordingmode count
attr source packetDropReasonIsInterfaceDown(packetDropped)
attr title "packet drops: interface down, count"
scalar ManetprotocolsShowcaseB.source.wlan[0] packetDropInterfaceDown:sum(packetBytes) 0
attr interpolationmode none
attr recordingmode sum(packetBytes)
attr source packetDropReasonIsInterfaceDown(packetDropped)
attr title "packet drops: interface down, sum(packetBytes)"
scalar ManetprotocolsShowcaseB.source.wlan[0] packetDropNoCarrier:count 0
attr interpolationmode none
attr recordingmode count
attr source packetDropReasonIsNoCarrier(packetDropped)
attr title "packet drops: no carrier, count"
scalar ManetprotocolsShowcaseB.source.wlan[0] packetDropNoCarrier:sum(packetBytes) 0
attr interpolationmode none
attr recordingmode sum(packetBytes)
attr source packetDropReasonIsNoCarrier(packetDropped)
attr title "packet drops: no carrier, sum(packetBytes)"
par ManetprotocolsShowcaseB.source.ipv4.transportIn.channel typename "\"ned.IdealChannel\""
par ManetprotocolsShowcaseB.source.ipv4.up.out[0].channel typename "\"ned.IdealChannel\""
par ManetprotocolsShowcaseB.source.ipv4.lp.out[2].channel typename "\"ned.IdealChannel\""
par ManetprotocolsShowcaseB.source.ipv4.ifIn.channel typename "\"ned.IdealChannel\""
par ManetprotocolsShowcaseB.source.ipv4.configurator typename "\"inet.networklayer.configurator.ipv4.Ipv4NodeConfigurator\""
par ManetprotocolsShowcaseB.source.ipv4.configurator displayStringTextFormat "\"\""
attr mutable ""
par ManetprotocolsShowcaseB.source.ipv4.configurator interfaceTableModule "\"ManetprotocolsShowcaseB.source.interfaceTable\""
par ManetprotocolsShowcaseB.source.ipv4.configurator routingTableModule "\"ManetprotocolsShowcaseB.source.ipv4.routingTable\""
par ManetprotocolsShowcaseB.source.ipv4.configurator networkConfiguratorModule "\"configurator\""
par ManetprotocolsShowcaseB.source.ipv4.configurator configureRoutingTable true
par ManetprotocolsShowcaseB.source.ipv4.routingTable typename "\"inet.networklayer.ipv4.Ipv4RoutingTable\""
par ManetprotocolsShowcaseB.source.ipv4.routingTable displayStringTextFormat "\"\""
attr mutable ""
par ManetprotocolsShowcaseB.source.ipv4.routingTable interfaceTableModule "\"ManetprotocolsShowcaseB.source.interfaceTable\""
par ManetprotocolsShowcaseB.source.ipv4.routingTable routerId "\"auto\""
par ManetprotocolsShowcaseB.source.ipv4.routingTable netmaskRoutes "\"\""
par ManetprotocolsShowcaseB.source.ipv4.routingTable forwarding true
par ManetprotocolsShowcaseB.source.ipv4.routingTable multicastForwarding false
par ManetprotocolsShowcaseB.source.ipv4.routingTable useAdminDist false
par ManetprotocolsShowcaseB.source.ipv4.routingTable routingFile "\"\""
par ManetprotocolsShowcaseB.source.ipv4.natTable typename "\"inet.networklayer.ipv4.Ipv4NatTable\""
par ManetprotocolsShowcaseB.source.ipv4.natTable displayStringTextFormat "\"\""
attr mutable ""
par ManetprotocolsShowcaseB.source.ipv4.natTable networkProtocolModule "\"^.ip\""
par ManetprotocolsShowcaseB.source.ipv4.natTable config "<config/> at content:1"
par ManetprotocolsShowcaseB.source.ipv4.up typename "\"inet.common.MessageDispatcher\""
par ManetprotocolsShowcaseB.source.ipv4.up displayStringTextFormat "\"processed %p pk (%l)\""
attr mutable ""
par ManetprotocolsShowcaseB.source.ipv4.up interfaceTableModule "\"ManetprotocolsShowcaseB.source.interfaceTable\""
par ManetprotocolsShowcaseB.source.ipv4.up forwardServiceRegistration true
par ManetprotocolsShowcaseB.source.ipv4.up forwardProtocolRegistration true
par ManetprotocolsShowcaseB.source.ipv4.up interfaceMapping {}
par ManetprotocolsShowcaseB.source.ipv4.up serviceMapping {}
par ManetprotocolsShowcaseB.source.ipv4.up protocolMapping {}
par ManetprotocolsShowcaseB.source.ipv4.igmp typename "\"inet.networklayer.ipv4.Igmpv2\""
par ManetprotocolsShowcaseB.source.ipv4.igmp displayStringTextFormat "\"\""
attr mutable ""
par ManetprotocolsShowcaseB.source.ipv4.igmp interfaceTableModule "\"ManetprotocolsShowcaseB.source.interfaceTable\""
par ManetprotocolsShowcaseB.source.ipv4.igmp routingTableModule "\"ManetprotocolsShowcaseB.source.ipv4.routingTable\""
par ManetprotocolsShowcaseB.source.ipv4.igmp checksumMode "\"declared\""
attr enum declared,computed
par ManetprotocolsShowcaseB.source.ipv4.igmp enabled true
par ManetprotocolsShowcaseB.source.ipv4.igmp robustnessVariable 2
par ManetprotocolsShowcaseB.source.ipv4.igmp queryInterval 125s
attr unit s
par ManetprotocolsShowcaseB.source.ipv4.igmp queryResponseInterval 10s
attr unit s
par ManetprotocolsShowcaseB.source.ipv4.igmp groupMembershipInterval 260s
attr unit s
par ManetprotocolsShowcaseB.source.ipv4.igmp otherQuerierPresentInterval 255s
attr unit s
par ManetprotocolsShowcaseB.source.ipv4.igmp startupQueryInterval 31.25s
attr unit s
par ManetprotocolsShowcaseB.source.ipv4.igmp startupQueryCount 2
par ManetprotocolsShowcaseB.source.ipv4.igmp lastMemberQueryInterval 1s
attr unit s
par ManetprotocolsShowcaseB.source.ipv4.igmp lastMemberQueryCount 2
par ManetprotocolsShowcaseB.source.ipv4.igmp unsolicitedReportInterval 10s
attr unit s
par ManetprotocolsShowcaseB.source.ipv4.icmp typename "\"inet.networklayer.ipv4.Icmp\""
par ManetprotocolsShowcaseB.source.ipv4.icmp displayStringTextFormat "\"\""
attr mutable ""
par ManetprotocolsShowcaseB.source.ipv4.icmp interfaceTableModule "\"ManetprotocolsShowcaseB.source.interfaceTable\""
par ManetprotocolsShowcaseB.source.ipv4.icmp routingTableModule "\"ManetprotocolsShowcaseB.source.ipv4.routingTable\""
par ManetprotocolsShowcaseB.source.ipv4.icmp checksumMode "\"declared\""
attr enum declared,computed
attr mutable ""
par ManetprotocolsShowcaseB.source.ipv4.icmp quoteLength 8B
attr mutable ""
attr unit B
par ManetprotocolsShowcaseB.source.ipv4.mp typename "\"inet.common.MessageDispatcher\""
par ManetprotocolsShowcaseB.source.ipv4.mp displayStringTextFormat "\"processed %p pk (%l)\""
attr mutable ""
par ManetprotocolsShowcaseB.source.ipv4.mp interfaceTableModule "\"ManetprotocolsShowcaseB.source.interfaceTable\""
par ManetprotocolsShowcaseB.source.ipv4.mp forwardServiceRegistration true
par ManetprotocolsShowcaseB.source.ipv4.mp forwardProtocolRegistration true
par ManetprotocolsShowcaseB.source.ipv4.mp interfaceMapping {}
par ManetprotocolsShowcaseB.source.ipv4.mp serviceMapping {}
par ManetprotocolsShowcaseB.source.ipv4.mp protocolMapping {}
par ManetprotocolsShowcaseB.source.ipv4.ip typename "\"inet.networklayer.ipv4.Ipv4\""
par ManetprotocolsShowcaseB.source.ipv4.ip displayStringTextFormat "\"\""
attr mutable ""
par ManetprotocolsShowcaseB.source.ipv4.ip interfaceTableModule "\"ManetprotocolsShowcaseB.source.interfaceTable\""
par ManetprotocolsShowcaseB.source.ipv4.ip routingTableModule "\"ManetprotocolsShowcaseB.source.ipv4.routingTable\""
par ManetprotocolsShowcaseB.source.ipv4.ip arpModule "\"ManetprotocolsShowcaseB.source.ipv4.arp\""
par ManetprotocolsShowcaseB.source.ipv4.ip icmpModule "\"ManetprotocolsShowcaseB.source.ipv4.icmp\""
par ManetprotocolsShowcaseB.source.ipv4.ip checksumMode "\"declared\""
attr enum declared,computed
par ManetprotocolsShowcaseB.source.ipv4.ip timeToLive 32
par ManetprotocolsShowcaseB.source.ipv4.ip multicastTimeToLive 32
par ManetprotocolsShowcaseB.source.ipv4.ip fragmentTimeout 60s
attr unit s
par ManetprotocolsShowcaseB.source.ipv4.ip limitedBroadcast false
par ManetprotocolsShowcaseB.source.ipv4.ip directBroadcastInterfaces "\"\""
par ManetprotocolsShowcaseB.source.ipv4.ip enableLocalOutMulticastRouting false
par ManetprotocolsShowcaseB.source.ipv4.ip enableTimestampOption false
par ManetprotocolsShowcaseB.source.ipv4.ip maxLifetime -1s
attr unit s
scalar ManetprotocolsShowcaseB.source.ipv4.ip packetDropAddressResolutionFailed:count 0
attr interpolationmode none
attr recordingmode count
attr source packetDropReasonIsAddressResolutionFailed(packetDropped)
attr title "packet drop: address resolution failed, count"
scalar ManetprotocolsShowcaseB.source.ipv4.ip packetDropAddressResolutionFailed:sum(packetBytes) 0
attr interpolationmode none
attr recordingmode sum(packetBytes)
attr source packetDropReasonIsAddressResolutionFailed(packetDropped)
attr title "packet drop: address resolution failed, sum(packetBytes)"
scalar ManetprotocolsShowcaseB.source.ipv4.ip packetDropHopLimitReached:count 0
attr interpolationmode none
attr recordingmode count
attr source packetDropReasonIsHopLimitReached(packetDropped)
attr title "packet drop: hop limit reached, count"
scalar ManetprotocolsShowcaseB.source.ipv4.ip packetDropHopLimitReached:sum(packetBytes) 0
attr interpolationmode none
attr recordingmode sum(packetBytes)
attr source packetDropReasonIsHopLimitReached(packetDropped)
attr title "packet drop: hop limit reached, sum(packetBytes)"
scalar ManetprotocolsShowcaseB.source.ipv4.ip packetDropForwardingDisabled:count 0
attr interpolationmode none
attr recordingmode count
attr source packetDropReasonIsForwardingDisabled(packetDropped)
attr title "packet drop: forwarding disabled, count"
scalar ManetprotocolsShowcaseB.source.ipv4.ip packetDropForwardingDisabled:sum(packetBytes) 0
attr interpolationmode none
attr recordingmode sum(packetBytes)
attr source packetDropReasonIsForwardingDisabled(packetDropped)
attr title "packet drop: forwarding disabled, sum(packetBytes)"
scalar ManetprotocolsShowcaseB.source.ipv4.ip packetDropLifetimeExpired:count 0
attr interpolationmode none
attr recordingmode count
attr source packetDropReasonIsLifetimeExpired(packetDropped)
attr title "packet drop: lifetime expired, count"
scalar ManetprotocolsShowcaseB.source.ipv4.ip packetDropLifetimeExpired:sum(packetBytes) 0
attr interpolationmode none
attr recordingmode sum(packetBytes)
attr source packetDropReasonIsLifetimeExpired(packetDropped)
attr title "packet drop: lifetime expired, sum(packetBytes)"
scalar ManetprotocolsShowcaseB.source.ipv4.ip packetDropNoInterfaceFound:count 0
attr interpolationmode none
attr recordingmode count
attr source packetDropReasonIsNoInterfaceFound(packetDropped)
attr title "packet drop: no interface found, count"
scalar ManetprotocolsShowcaseB.source.ipv4.ip packetDropNoInterfaceFound:sum(packetBytes) 0
attr interpolationmode none
attr recordingmode sum(packetBytes)
attr source packetDropReasonIsNoInterfaceFound(packetDropped)
attr title "packet drop: no interface found, sum(packetBytes)"
scalar ManetprotocolsShowcaseB.source.ipv4.ip packetDropNoRouteFound:count 0
attr interpolationmode none
attr recordingmode count
attr source packetDropReasonIsNoRouteFound(packetDropped)
attr title "packet drop: no route found, count"
scalar ManetprotocolsShowcaseB.source.ipv4.ip packetDropNoRouteFound:sum(packetBytes) 0
attr interpolationmode none
attr recordingmode sum(packetBytes)
attr source packetDropReasonIsNoRouteFound(packetDropped)
attr title "packet drop: no route found, sum(packetBytes)"
scalar ManetprotocolsShowcaseB.source.ipv4.ip packetDropUndefined:count 0
attr interpolationmode none
attr recordingmode count
attr source packetDropReasonIsUndefined(packetDropped)
attr title "packet drop: undefined, count"
scalar ManetprotocolsShowcaseB.source.ipv4.ip packetDropUndefined:sum(packetBytes) 0
attr interpolationmode none
attr recordingmode sum(packetBytes)
attr source packetDropReasonIsUndefined(packetDropped)
attr title "packet drop: undefined, sum(packetBytes)"
par ManetprotocolsShowcaseB.source.ipv4.arp typename "\"inet.networklayer.arp.ipv4.GlobalArp\""
par ManetprotocolsShowcaseB.source.ipv4.arp displayStringTextFormat "\"\""
attr mutable ""
par ManetprotocolsShowcaseB.source.ipv4.arp interfaceTableModule "\"ManetprotocolsShowcaseB.source.interfaceTable\""
par ManetprotocolsShowcaseB.source.ipv4.arp addressType "\"ipv4\""
attr enum ipv4,ipv6,mac,moduleid,modulepath
par ManetprotocolsShowcaseB.source.ipv4.lp typename "\"inet.common.MessageDispatcher\""
par ManetprotocolsShowcaseB.source.ipv4.lp displayStringTextFormat "\"processed %p pk (%l)\""
attr mutable ""
par ManetprotocolsShowcaseB.source.ipv4.lp interfaceTableModule "\"ManetprotocolsShowcaseB.source.interfaceTable\""
par ManetprotocolsShowcaseB.source.ipv4.lp forwardServiceRegistration true
par ManetprotocolsShowcaseB.source.ipv4.lp forwardProtocolRegistration true
par ManetprotocolsShowcaseB.source.ipv4.lp interfaceMapping {}
par ManetprotocolsShowcaseB.source.ipv4.lp serviceMapping {}
par ManetprotocolsShowcaseB.source.ipv4.lp protocolMapping {}
par ManetprotocolsShowcaseB.source.ipv4 typename "\"inet.networklayer.ipv4.Ipv4NetworkLayer\""
par ManetprotocolsShowcaseB.source.ipv4 displayStringTextFormat "\"%i\""
attr mutable ""
par ManetprotocolsShowcaseB.source.ipv4 forwarding true
par ManetprotocolsShowcaseB.source.ipv4 multicastForwarding false
par ManetprotocolsShowcaseB.source.ipv4 hasIpsec false
par ManetprotocolsShowcaseB.source.ipv4 interfaceTableModule "\"ManetprotocolsShowcaseB.source.interfaceTable\""
par ManetprotocolsShowcaseB.source.nl typename "\"inet.common.MessageDispatcher\""
par ManetprotocolsShowcaseB.source.nl displayStringTextFormat "\"processed %p pk (%l)\""
attr mutable ""
par ManetprotocolsShowcaseB.source.nl interfaceTableModule "\"ManetprotocolsShowcaseB.source.interfaceTable\""
par ManetprotocolsShowcaseB.source.nl forwardServiceRegistration true
par ManetprotocolsShowcaseB.source.nl forwardProtocolRegistration true
par ManetprotocolsShowcaseB.source.nl interfaceMapping {}
par ManetprotocolsShowcaseB.source.nl serviceMapping {}
par ManetprotocolsShowcaseB.source.nl protocolMapping {}
par ManetprotocolsShowcaseB.source.udp typename "\"inet.transportlayer.udp.Udp\""
par ManetprotocolsShowcaseB.source.udp displayStringTextFormat "\"\""
attr mutable ""
par ManetprotocolsShowcaseB.source.udp interfaceTableModule "\"ManetprotocolsShowcaseB.source.interfaceTable\""
par ManetprotocolsShowcaseB.source.udp icmpModule "\"^.ipv4.icmp\""
par ManetprotocolsShowcaseB.source.udp icmpv6Module "\"^.ipv6.icmpv6\""
par ManetprotocolsShowcaseB.source.udp checksumMode "\"declared\""
attr enum disabled,declared,computed
par ManetprotocolsShowcaseB.source.udp defaultMulticastLoop true
scalar ManetprotocolsShowcaseB.source.udp packetReceived:count 446
attr interpolationmode none
attr recordingmode count
attr source packetReceived
attr title "packets received, count"
scalar ManetprotocolsShowcaseB.source.udp packetReceived:sum(packetBytes) 13904
attr interpolationmode none
attr recordingmode sum(packetBytes)
attr source packetReceived
attr title "packets received, sum(packetBytes)"
scalar ManetprotocolsShowcaseB.source.udp packetSent:count 84
attr interpolationmode none
attr recordingmode count
attr source packetSent
attr title "packets sent, count"
scalar ManetprotocolsShowcaseB.source.udp packetSent:sum(packetBytes) 2640
attr interpolationmode none
attr recordingmode sum(packetBytes)
attr source packetSent
attr title "packets sent, sum(packetBytes)"
scalar ManetprotocolsShowcaseB.source.udp passedUpPk:count 446
attr interpolationmode none
attr recordingmode count
attr source packetSentToUpper
attr title "packets passed up, count"
scalar ManetprotocolsShowcaseB.source.udp droppedPkWrongPort:count 0
attr interpolationmode none
attr recordingmode count
attr source packetDropReasonIsNoPortFound(packetDropped)
attr title "packets dropped (wrong port), count"
scalar ManetprotocolsShowcaseB.source.udp droppedPkBadChecksum:count 0
attr interpolationmode none
attr recordingmode count
attr source packetDropReasonIsIncorrectlyReceived(packetDropped)
attr title "packets dropped (checksum error), count"
par ManetprotocolsShowcaseB.source.tcp typename "\"inet.transportlayer.tcp.Tcp\""
par ManetprotocolsShowcaseB.source.tcp displayStringTextFormat "\"\""
attr mutable ""
par ManetprotocolsShowcaseB.source.tcp checksumMode "\"declared\""
attr enum declared,computed
par ManetprotocolsShowcaseB.source.tcp advertisedWindow 7504
par ManetprotocolsShowcaseB.source.tcp delayedAcksEnabled false
par ManetprotocolsShowcaseB.source.tcp nagleEnabled true
par ManetprotocolsShowcaseB.source.tcp limitedTransmitEnabled false
par ManetprotocolsShowcaseB.source.tcp increasedIWEnabled false
par ManetprotocolsShowcaseB.source.tcp sackSupport false
par ManetprotocolsShowcaseB.source.tcp windowScalingSupport false
par ManetprotocolsShowcaseB.source.tcp windowScalingFactor -1
par ManetprotocolsShowcaseB.source.tcp timestampSupport false
par ManetprotocolsShowcaseB.source.tcp mss 536
par ManetprotocolsShowcaseB.source.tcp msl 120s
attr unit s
par ManetprotocolsShowcaseB.source.tcp tcpAlgorithmClass "\"TcpReno\""
attr examples TcpVegas,TcpWestwood,DcTcp,TcpNewReno,TcpReno,TcpTahoe,TcpNoCongestionControl
par ManetprotocolsShowcaseB.source.tcp dupthresh 3
par ManetprotocolsShowcaseB.source.tcp initialSsthresh 4294967295
par ManetprotocolsShowcaseB.source.tcp stopOperationExtraTime 0s
attr unit s
par ManetprotocolsShowcaseB.source.tcp stopOperationTimeout 2s
attr unit s
par ManetprotocolsShowcaseB.source.tcp ecnWillingness false
par ManetprotocolsShowcaseB.source.tcp dctcpGamma 0.0625
par ManetprotocolsShowcaseB.source.tn typename "\"inet.common.MessageDispatcher\""
par ManetprotocolsShowcaseB.source.tn displayStringTextFormat "\"processed %p pk (%l)\""
attr mutable ""
par ManetprotocolsShowcaseB.source.tn interfaceTableModule "\"ManetprotocolsShowcaseB.source.interfaceTable\""
par ManetprotocolsShowcaseB.source.tn forwardServiceRegistration true
par ManetprotocolsShowcaseB.source.tn forwardProtocolRegistration true
par ManetprotocolsShowcaseB.source.tn interfaceMapping {}
par ManetprotocolsShowcaseB.source.tn serviceMapping {}
par ManetprotocolsShowcaseB.source.tn protocolMapping {}
par ManetprotocolsShowcaseB.source.app[0] typename "\"inet.applications.pingapp.PingApp\""
par ManetprotocolsShowcaseB.source.app[0] displayStringTextFormat "\"sent: {sentCount} pks\\nrcvd: {numPongs} pks\""
attr mutable ""
par ManetprotocolsShowcaseB.source.app[0] destAddr "\"destination\""
par ManetprotocolsShowcaseB.source.app[0] srcAddr "\"\""
par ManetprotocolsShowcaseB.source.app[0] packetSize 56B
attr unit B
par ManetprotocolsShowcaseB.source.app[0] sendInterval 1s
attr unit s
par ManetprotocolsShowcaseB.source.app[0] hopLimit -1
par ManetprotocolsShowcaseB.source.app[0] count -1
par ManetprotocolsShowcaseB.source.app[0] startTime 0.844266s
attr unit s
par ManetprotocolsShowcaseB.source.app[0] stopTime -1s
attr unit s
par ManetprotocolsShowcaseB.source.app[0] sleepDuration 0s
attr unit s
par ManetprotocolsShowcaseB.source.app[0] continuous false
par ManetprotocolsShowcaseB.source.app[0] printPing true
par ManetprotocolsShowcaseB.source.app[0] checksumMode "\"declared\""
attr enum declared,computed
par ManetprotocolsShowcaseB.source.app[0] networkProtocol "\"\""
par ManetprotocolsShowcaseB.source.app[0] stopOperationExtraTime -1s
attr unit s
par ManetprotocolsShowcaseB.source.app[0] stopOperationTimeout 2s
attr unit s
scalar ManetprotocolsShowcaseB.source.app[0] "Pings sent" 200
scalar ManetprotocolsShowcaseB.source.app[0] "ping loss rate (%)" 6.5
scalar ManetprotocolsShowcaseB.source.app[0] "ping out-of-order rate (%)" 0
scalar ManetprotocolsShowcaseB.source.app[0] pingRxSeq:count 187
attr interpolationmode none
attr recordingmode count
attr title "ping rx seq, count"
scalar ManetprotocolsShowcaseB.source.app[0] pingTxSeq:count 200
attr interpolationmode none
attr recordingmode count
attr title "ping tx seq, count"
scalar ManetprotocolsShowcaseB.source.app[0] numOutOfOrderArrivals:last nan
attr interpolationmode none
attr recordingmode last
attr title "ping out-of-order arrivals, last"
scalar ManetprotocolsShowcaseB.source.app[0] numLost:last 13
attr interpolationmode none
attr recordingmode last
attr title "pings lost, last"
statistic ManetprotocolsShowcaseB.source.app[0] rtt:histogram
field count 187
field mean 0.0059605067879893
field stddev 0.023903385421525
field min 0.000784154869
field max 0.326779265205
field sum 1.114614769354
field sqrsum 0.11291883013618
attr interpolationmode none
attr recordingmode histogram
attr title "ping round-trip time"
attr unit s
bin	-inf	0
bin	0	123
bin	0.0056	51
bin	0.0112	12
bin	0.0168	0
bin	0.0224	0
bin	0.028	0
bin	0.0336	0
bin	0.0392	0
bin	0.0448	0
bin	0.0504	0
bin	0.056	0
bin	0.0616	0
bin	0.0672	0
bin	0.0728	0
bin	0.0784	0
bin	0.084	0
bin	0.0896	0
bin	0.0952	0
bin	0.1008	0
bin	0.1064	0
bin	0.112	0
bin	0.1176	0
bin	0.1232	0
bin	0.1288	0
bin	0.1344	0
bin	0.14	0
bin	0.1456	0
bin	0.1512	0
bin	0.1568	0
bin	0.1624	0
bin	0.168	0
bin	0.1736	0
bin	0.1792	0
bin	0.1848	0
bin	0.1904	0
bin	0.196	0
bin	0.2016	0
bin	0.2072	0
bin	0.2128	0
bin	0.2184	0
bin	0.224	0
bin	0.2296	0
bin	0.2352	0
bin	0.2408	0
bin	0.2464	0
bin	0.252	0
bin	0.2576	0
bin	0.2632	0
bin	0.2688	0
bin	0.2744	0
bin	0.28	0
bin	0.2856	0
bin	0.2912	0
bin	0.2968	0
bin	0.3024	0
bin	0.308	0
bin	0.3136	0
bin	0.3192	0
bin	0.3248	1
bin	0.3304	0
par ManetprotocolsShowcaseB.source.at typename "\"inet.common.MessageDispatcher\""
[...]
attr mutable ""
par ManetprotocolsShowcaseB.visualizer.linkBreakVisualizer[0] icon "\"status/stop\""
par ManetprotocolsShowcaseB.visualizer.linkBreakVisualizer[0] iconTintAmount 0
par ManetprotocolsShowcaseB.visualizer.linkBreakVisualizer[0] iconTintColor "\"\""
par ManetprotocolsShowcaseB.visualizer.linkBreakVisualizer[0] fadeOutMode "\"realTime\""
attr enum realTime,animationTime,simulationTime
par ManetprotocolsShowcaseB.visualizer.linkBreakVisualizer[0] fadeOutTime 1s
attr unit s
par ManetprotocolsShowcaseB.visualizer.linkBreakVisualizer[0] fadeOutAnimationSpeed 0
par ManetprotocolsShowcaseB.visualizer.linkBreakVisualizer[0] zIndex 2
par ManetprotocolsShowcaseB.visualizer.ieee80211Visualizer[0] typename "\"inet.visualizer.canvas.linklayer.Ieee80211CanvasVisualizer\""
par ManetprotocolsShowcaseB.visualizer.ieee80211Visualizer[0] displayStringTextFormat "\"\""
attr mutable ""
par ManetprotocolsShowcaseB.visualizer.ieee80211Visualizer[0] visualizationTargetModule "\"^.^\""
par ManetprotocolsShowcaseB.visualizer.ieee80211Visualizer[0] visualizationSubjectModule "\"^.^\""
par ManetprotocolsShowcaseB.visualizer.ieee80211Visualizer[0] tags "\"\""
par ManetprotocolsShowcaseB.visualizer.ieee80211Visualizer[0] networkNodeVisualizerModule "\"ManetprotocolsShowcaseB.visualizer.networkNodeVisualizer[0]\""
par ManetprotocolsShowcaseB.visualizer.ieee80211Visualizer[0] displayAssociations false
par ManetprotocolsShowcaseB.visualizer.ieee80211Visualizer[0] nodeFilter "\"*\""
attr mutable ""
par ManetprotocolsShowcaseB.visualizer.ieee80211Visualizer[0] interfaceFilter "\"*\""
attr mutable ""
par ManetprotocolsShowcaseB.visualizer.ieee80211Visualizer[0] minPower -85dBm
attr unit dBm
par ManetprotocolsShowcaseB.visualizer.ieee80211Visualizer[0] maxPower -50dBm
attr unit dBm
par ManetprotocolsShowcaseB.visualizer.ieee80211Visualizer[0] icons "\"misc/signal_power_0 misc/signal_power_1 misc/signal_power_2 misc/signal_power_3\""
par ManetprotocolsShowcaseB.visualizer.ieee80211Visualizer[0] iconColor "\"dark\""
par ManetprotocolsShowcaseB.visualizer.ieee80211Visualizer[0] labelFont "\"<default>\""
par ManetprotocolsShowcaseB.visualizer.ieee80211Visualizer[0] labelColor "\"black\""
par ManetprotocolsShowcaseB.visualizer.ieee80211Visualizer[0] placementHint "\"top\""
par ManetprotocolsShowcaseB.visualizer.ieee80211Visualizer[0] placementPriority 0
par ManetprotocolsShowcaseB.visualizer.ieee80211Visualizer[0] zIndex 2
par ManetprotocolsShowcaseB.visualizer.networkRouteVisualizer[0] typename "\"inet.visualizer.canvas.networklayer.NetworkRouteCanvasVisualizer\""
par ManetprotocolsShowcaseB.visualizer.networkRouteVisualizer[0] displayStringTextFormat "\"\""
attr mutable ""
par ManetprotocolsShowcaseB.visualizer.networkRouteVisualizer[0] visualizationTargetModule "\"^.^\""
par ManetprotocolsShowcaseB.visualizer.networkRouteVisualizer[0] visualizationSubjectModule "\"^.^\""
par ManetprotocolsShowcaseB.visualizer.networkRouteVisualizer[0] tags "\"\""
par ManetprotocolsShowcaseB.visualizer.networkRouteVisualizer[0] displayRoutes true
par ManetprotocolsShowcaseB.visualizer.networkRouteVisualizer[0] startPathSignal "\"packetReceivedFromUpper\""
par ManetprotocolsShowcaseB.visualizer.networkRouteVisualizer[0] extendPathSignal "\"packetReceivedFromLower\""
par ManetprotocolsShowcaseB.visualizer.networkRouteVisualizer[0] endPathSignal "\"packetSentToUpper\""
par ManetprotocolsShowcaseB.visualizer.networkRouteVisualizer[0] nodeFilter "\"*\""
attr mutable ""
par ManetprotocolsShowcaseB.visualizer.networkRouteVisualizer[0] packetFilter "(omnetpp::cValueHolder)holder: \"*ping*\""
attr mutable ""
par ManetprotocolsShowcaseB.visualizer.networkRouteVisualizer[0] lineColor "\"dark\""
par ManetprotocolsShowcaseB.visualizer.networkRouteVisualizer[0] lineStyle "\"solid\""
par ManetprotocolsShowcaseB.visualizer.networkRouteVisualizer[0] lineWidth 3
par ManetprotocolsShowcaseB.visualizer.networkRouteVisualizer[0] lineSmooth false
par ManetprotocolsShowcaseB.visualizer.networkRouteVisualizer[0] lineShift 16
par ManetprotocolsShowcaseB.visualizer.networkRouteVisualizer[0] lineShiftMode "\"normal\""
par ManetprotocolsShowcaseB.visualizer.networkRouteVisualizer[0] lineContactSpacing 3
par ManetprotocolsShowcaseB.visualizer.networkRouteVisualizer[0] lineContactMode "\"rectangular\""
attr enum circular,rectangular
par ManetprotocolsShowcaseB.visualizer.networkRouteVisualizer[0] labelFormat "\"%n\""
par ManetprotocolsShowcaseB.visualizer.networkRouteVisualizer[0] labelFont "\"<default>, 8px\""
par ManetprotocolsShowcaseB.visualizer.networkRouteVisualizer[0] labelColor "\"\""
par ManetprotocolsShowcaseB.visualizer.networkRouteVisualizer[0] fadeOutMode "\"realTime\""
attr enum realTime,animationTime,simulationTime
par ManetprotocolsShowcaseB.visualizer.networkRouteVisualizer[0] fadeOutTime 1s
attr unit s
par ManetprotocolsShowcaseB.visualizer.networkRouteVisualizer[0] fadeOutAnimationSpeed 0
par ManetprotocolsShowcaseB.visualizer.networkRouteVisualizer[0] zIndex 3
par ManetprotocolsShowcaseB.visualizer.routingTableVisualizer[0] typename "\"inet.visualizer.canvas.networklayer.RoutingTableCanvasVisualizer\""
par ManetprotocolsShowcaseB.visualizer.routingTableVisualizer[0] displayStringTextFormat "\"\""
attr mutable ""
par ManetprotocolsShowcaseB.visualizer.routingTableVisualizer[0] visualizationTargetModule "\"^.^\""
par ManetprotocolsShowcaseB.visualizer.routingTableVisualizer[0] visualizationSubjectModule "\"^.^\""
par ManetprotocolsShowcaseB.visualizer.routingTableVisualizer[0] tags "\"\""
par ManetprotocolsShowcaseB.visualizer.routingTableVisualizer[0] displayRoutingTables true
par ManetprotocolsShowcaseB.visualizer.routingTableVisualizer[0] displayRoutesIndividually false
par ManetprotocolsShowcaseB.visualizer.routingTableVisualizer[0] displayLabels false
par ManetprotocolsShowcaseB.visualizer.routingTableVisualizer[0] destinationFilter "\"destination\""
attr mutable ""
par ManetprotocolsShowcaseB.visualizer.routingTableVisualizer[0] nodeFilter "\"*\""
attr mutable ""
par ManetprotocolsShowcaseB.visualizer.routingTableVisualizer[0] multicastSourceNodeFilter "\"*\""
attr mutable ""
par ManetprotocolsShowcaseB.visualizer.routingTableVisualizer[0] multicastSourceAddressFilter "\"*\""
attr mutable ""
par ManetprotocolsShowcaseB.visualizer.routingTableVisualizer[0] multicastGroupFilter "\"*\""
attr mutable ""
par ManetprotocolsShowcaseB.visualizer.routingTableVisualizer[0] lineColor "\"black\""
par ManetprotocolsShowcaseB.visualizer.routingTableVisualizer[0] lineStyle "\"solid\""
par ManetprotocolsShowcaseB.visualizer.routingTableVisualizer[0] lineWidth 2
par ManetprotocolsShowcaseB.visualizer.routingTableVisualizer[0] lineShift 0
par ManetprotocolsShowcaseB.visualizer.routingTableVisualizer[0] lineShiftMode "\"normal\""
par ManetprotocolsShowcaseB.visualizer.routingTableVisualizer[0] lineContactSpacing 3
par ManetprotocolsShowcaseB.visualizer.routingTableVisualizer[0] lineContactMode "\"rectangular\""
attr enum circular,rectangular
par ManetprotocolsShowcaseB.visualizer.routingTableVisualizer[0] labelFormat "\"%d/%m -> %g (%n)\""
attr mutable ""
par ManetprotocolsShowcaseB.visualizer.routingTableVisualizer[0] labelFont "\"<default>, 8px\""
par ManetprotocolsShowcaseB.visualizer.routingTableVisualizer[0] labelColor "\"black\""
par ManetprotocolsShowcaseB.visualizer.routingTableVisualizer[0] zIndex 0
par ManetprotocolsShowcaseB.visualizer.transportRouteVisualizer[0] typename "\"inet.visualizer.canvas.transportlayer.TransportRouteCanvasVisualizer\""
par ManetprotocolsShowcaseB.visualizer.transportRouteVisualizer[0] displayStringTextFormat "\"\""
attr mutable ""
par ManetprotocolsShowcaseB.visualizer.transportRouteVisualizer[0] visualizationTargetModule "\"^.^\""
par ManetprotocolsShowcaseB.visualizer.transportRouteVisualizer[0] visualizationSubjectModule "\"^.^\""
par ManetprotocolsShowcaseB.visualizer.transportRouteVisualizer[0] tags "\"\""
par ManetprotocolsShowcaseB.visualizer.transportRouteVisualizer[0] displayRoutes false
par ManetprotocolsShowcaseB.visualizer.transportRouteVisualizer[0] startPathSignal "\"packetReceivedFromUpper\""
par ManetprotocolsShowcaseB.visualizer.transportRouteVisualizer[0] extendPathSignal "\"packetReceivedFromLower\""
par ManetprotocolsShowcaseB.visualizer.transportRouteVisualizer[0] endPathSignal "\"packetSentToUpper\""
par ManetprotocolsShowcaseB.visualizer.transportRouteVisualizer[0] nodeFilter "\"*\""
attr mutable ""
par ManetprotocolsShowcaseB.visualizer.transportRouteVisualizer[0] packetFilter "(omnetpp::cValueHolder)holder: \"*\""
attr mutable ""
par ManetprotocolsShowcaseB.visualizer.transportRouteVisualizer[0] lineColor "\"dark\""
par ManetprotocolsShowcaseB.visualizer.transportRouteVisualizer[0] lineStyle "\"solid\""
par ManetprotocolsShowcaseB.visualizer.transportRouteVisualizer[0] lineWidth 3
par ManetprotocolsShowcaseB.visualizer.transportRouteVisualizer[0] lineSmooth false
par ManetprotocolsShowcaseB.visualizer.transportRouteVisualizer[0] lineShift 16
par ManetprotocolsShowcaseB.visualizer.transportRouteVisualizer[0] lineShiftMode "\"normal\""
par ManetprotocolsShowcaseB.visualizer.transportRouteVisualizer[0] lineContactSpacing 3
par ManetprotocolsShowcaseB.visualizer.transportRouteVisualizer[0] lineContactMode "\"rectangular\""
attr enum circular,rectangular
par ManetprotocolsShowcaseB.visualizer.transportRouteVisualizer[0] labelFormat "\"%n\""
par ManetprotocolsShowcaseB.visualizer.transportRouteVisualizer[0] labelFont "\"<default>, 8px\""
par ManetprotocolsShowcaseB.visualizer.transportRouteVisualizer[0] labelColor "\"\""
par ManetprotocolsShowcaseB.visualizer.transportRouteVisualizer[0] fadeOutMode "\"realTime\""
attr enum realTime,animationTime,simulationTime
par ManetprotocolsShowcaseB.visualizer.transportRouteVisualizer[0] fadeOutTime 1s
attr unit s
par ManetprotocolsShowcaseB.visualizer.transportRouteVisualizer[0] fadeOutAnimationSpeed 0
par ManetprotocolsShowcaseB.visualizer.transportRouteVisualizer[0] zIndex 4
par ManetprotocolsShowcaseB.visualizer.transportConnectionVisualizer[0] typename "\"inet.visualizer.canvas.transportlayer.TransportConnectionCanvasVisualizer\""
par ManetprotocolsShowcaseB.visualizer.transportConnectionVisualizer[0] displayStringTextFormat "\"\""
attr mutable ""
par ManetprotocolsShowcaseB.visualizer.transportConnectionVisualizer[0] visualizationTargetModule "\"^.^\""
par ManetprotocolsShowcaseB.visualizer.transportConnectionVisualizer[0] visualizationSubjectModule "\"^.^\""
par ManetprotocolsShowcaseB.visualizer.transportConnectionVisualizer[0] tags "\"\""
par ManetprotocolsShowcaseB.visualizer.transportConnectionVisualizer[0] networkNodeVisualizerModule "\"ManetprotocolsShowcaseB.visualizer.networkNodeVisualizer[0]\""
par ManetprotocolsShowcaseB.visualizer.transportConnectionVisualizer[0] displayTransportConnections false
par ManetprotocolsShowcaseB.visualizer.transportConnectionVisualizer[0] sourceNodeFilter "\"*\""
attr mutable ""
par ManetprotocolsShowcaseB.visualizer.transportConnectionVisualizer[0] sourcePortFilter "\"*\""
attr mutable ""
par ManetprotocolsShowcaseB.visualizer.transportConnectionVisualizer[0] destinationNodeFilter "\"*\""
attr mutable ""
par ManetprotocolsShowcaseB.visualizer.transportConnectionVisualizer[0] destinationPortFilter "\"*\""
attr mutable ""
par ManetprotocolsShowcaseB.visualizer.transportConnectionVisualizer[0] icon "\"misc/marker_s\""
par ManetprotocolsShowcaseB.visualizer.transportConnectionVisualizer[0] iconColor "\"dark\""
par ManetprotocolsShowcaseB.visualizer.transportConnectionVisualizer[0] labelFont "\"<default>\""
par ManetprotocolsShowcaseB.visualizer.transportConnectionVisualizer[0] labelColor "\"black\""
par ManetprotocolsShowcaseB.visualizer.transportConnectionVisualizer[0] placementHint "\"top\""
par ManetprotocolsShowcaseB.visualizer.transportConnectionVisualizer[0] placementPriority 0
par ManetprotocolsShowcaseB.visualizer.transportConnectionVisualizer[0] zIndex 4
par ManetprotocolsShowcaseB.visualizer.failureProtectionConfigurationVisualizer[0] typename "\"inet.visualizer.canvas.configurator.FailureProtectionConfigurationCanvasVisualizer\""
par ManetprotocolsShowcaseB.visualizer.failureProtectionConfigurationVisualizer[0] displayStringTextFormat "\"\""
attr mutable ""
par ManetprotocolsShowcaseB.visualizer.failureProtectionConfigurationVisualizer[0] visualizationTargetModule "\"^.^\""
par ManetprotocolsShowcaseB.visualizer.failureProtectionConfigurationVisualizer[0] visualizationSubjectModule "\"^.^\""
par ManetprotocolsShowcaseB.visualizer.failureProtectionConfigurationVisualizer[0] tags "\"\""
par ManetprotocolsShowcaseB.visualizer.failureProtectionConfigurationVisualizer[0] displayTrees false
par ManetprotocolsShowcaseB.visualizer.failureProtectionConfigurationVisualizer[0] lineColor "\"dark\""
par ManetprotocolsShowcaseB.visualizer.failureProtectionConfigurationVisualizer[0] lineStyle "\"solid\""
par ManetprotocolsShowcaseB.visualizer.failureProtectionConfigurationVisualizer[0] lineWidth 3
par ManetprotocolsShowcaseB.visualizer.failureProtectionConfigurationVisualizer[0] lineSmooth false
par ManetprotocolsShowcaseB.visualizer.failureProtectionConfigurationVisualizer[0] lineShift 16
par ManetprotocolsShowcaseB.visualizer.failureProtectionConfigurationVisualizer[0] lineShiftMode "\"normal\""
par ManetprotocolsShowcaseB.visualizer.failureProtectionConfigurationVisualizer[0] lineContactSpacing 3
par ManetprotocolsShowcaseB.visualizer.failureProtectionConfigurationVisualizer[0] lineContactMode "\"rectangular\""
attr enum circular,rectangular
par ManetprotocolsShowcaseB.visualizer.failureProtectionConfigurationVisualizer[0] failureProtectionConfiguratorModule "\"failureProtectionConfigurator\""
par ManetprotocolsShowcaseB.visualizer.failureProtectionConfigurationVisualizer[0] streamFilter "\"*\""
par ManetprotocolsShowcaseB.visualizer.failureProtectionConfigurationVisualizer[0] zIndex 3
par ManetprotocolsShowcaseB.visualizer.streamRedundancyConfigurationVisualizer[0] typename "\"inet.visualizer.canvas.configurator.StreamRedundancyConfigurationCanvasVisualizer\""
par ManetprotocolsShowcaseB.visualizer.streamRedundancyConfigurationVisualizer[0] displayStringTextFormat "\"\""
attr mutable ""
par ManetprotocolsShowcaseB.visualizer.streamRedundancyConfigurationVisualizer[0] visualizationTargetModule "\"^.^\""
par ManetprotocolsShowcaseB.visualizer.streamRedundancyConfigurationVisualizer[0] visualizationSubjectModule "\"^.^\""
par ManetprotocolsShowcaseB.visualizer.streamRedundancyConfigurationVisualizer[0] tags "\"\""
par ManetprotocolsShowcaseB.visualizer.streamRedundancyConfigurationVisualizer[0] displayTrees false
par ManetprotocolsShowcaseB.visualizer.streamRedundancyConfigurationVisualizer[0] lineColor "\"dark\""
par ManetprotocolsShowcaseB.visualizer.streamRedundancyConfigurationVisualizer[0] lineStyle "\"solid\""
par ManetprotocolsShowcaseB.visualizer.streamRedundancyConfigurationVisualizer[0] lineWidth 3
par ManetprotocolsShowcaseB.visualizer.streamRedundancyConfigurationVisualizer[0] lineSmooth false
par ManetprotocolsShowcaseB.visualizer.streamRedundancyConfigurationVisualizer[0] lineShift 16
par ManetprotocolsShowcaseB.visualizer.streamRedundancyConfigurationVisualizer[0] lineShiftMode "\"normal\""
par ManetprotocolsShowcaseB.visualizer.streamRedundancyConfigurationVisualizer[0] lineContactSpacing 3
par ManetprotocolsShowcaseB.visualizer.streamRedundancyConfigurationVisualizer[0] lineContactMode "\"rectangular\""
attr enum circular,rectangular
par ManetprotocolsShowcaseB.visualizer.streamRedundancyConfigurationVisualizer[0] streamRedundancyConfiguratorModule "\"streamRedundancyConfigurator\""
par ManetprotocolsShowcaseB.visualizer.streamRedundancyConfigurationVisualizer[0] streamFilter "\"*\""
par ManetprotocolsShowcaseB.visualizer.streamRedundancyConfigurationVisualizer[0] zIndex 3
par ManetprotocolsShowcaseB.visualizer.channelVisualizer[0] typename "\"inet.visualizer.canvas.physicallayer.ChannelCanvasVisualizer\""
par ManetprotocolsShowcaseB.visualizer.channelVisualizer[0] displayStringTextFormat "\"\""
attr mutable ""
par ManetprotocolsShowcaseB.visualizer.channelVisualizer[0] visualizationTargetModule "\"^.^\""
par ManetprotocolsShowcaseB.visualizer.channelVisualizer[0] visualizationSubjectModule "\"^.^\""
par ManetprotocolsShowcaseB.visualizer.channelVisualizer[0] tags "\"\""
par ManetprotocolsShowcaseB.visualizer.channelVisualizer[0] displayChannelActivity false
par ManetprotocolsShowcaseB.visualizer.channelVisualizer[0] nodeFilter "\"*\""
attr mutable ""
par ManetprotocolsShowcaseB.visualizer.channelVisualizer[0] packetFilter "(omnetpp::cValueHolder)holder: \"*\""
attr mutable ""
par ManetprotocolsShowcaseB.visualizer.channelVisualizer[0] lineColor "\"blue\""
par ManetprotocolsShowcaseB.visualizer.channelVisualizer[0] lineStyle "\"solid\""
par ManetprotocolsShowcaseB.visualizer.channelVisualizer[0] lineWidth 3
par ManetprotocolsShowcaseB.visualizer.channelVisualizer[0] lineShift 16
par ManetprotocolsShowcaseB.visualizer.channelVisualizer[0] lineShiftMode "\"normal\""
par ManetprotocolsShowcaseB.visualizer.channelVisualizer[0] lineContactSpacing 3
par ManetprotocolsShowcaseB.visualizer.channelVisualizer[0] lineContactMode "\"rectangular\""
attr enum circular,rectangular
par ManetprotocolsShowcaseB.visualizer.channelVisualizer[0] labelFormat "\"%n\""
par ManetprotocolsShowcaseB.visualizer.channelVisualizer[0] labelFont "\"<default>, 8px\""
par ManetprotocolsShowcaseB.visualizer.channelVisualizer[0] labelColor "\"blue\""
par ManetprotocolsShowcaseB.visualizer.channelVisualizer[0] fadeOutMode "\"realTime\""
attr enum realTime,animationTime,simulationTime
par ManetprotocolsShowcaseB.visualizer.channelVisualizer[0] fadeOutTime 1s
attr unit s
par ManetprotocolsShowcaseB.visualizer.channelVisualizer[0] fadeOutAnimationSpeed 0
par ManetprotocolsShowcaseB.visualizer.channelVisualizer[0] holdAnimationTime 0s
attr unit s
par ManetprotocolsShowcaseB.visualizer.channelVisualizer[0] zIndex 1
par ManetprotocolsShowcaseB.visualizer typename "\"inet.visualizer.canvas.integrated.IntegratedMultiCanvasVisualizer\""
par ManetprotocolsShowcaseB.visualizer numSceneVisualizers 1
par ManetprotocolsShowcaseB.visualizer numPhysicalEnvironmentVisualizers 1
par ManetprotocolsShowcaseB.visualizer numNetworkNodeVisualizers 1
par ManetprotocolsShowcaseB.visualizer numNetworkConnectionVisualizers 1
par ManetprotocolsShowcaseB.visualizer numMobilityVisualizers 1
par ManetprotocolsShowcaseB.visualizer numStatisticVisualizers 1
par ManetprotocolsShowcaseB.visualizer numInfoVisualizers 1
par ManetprotocolsShowcaseB.visualizer numEnergyStorageVisualizers 1
par ManetprotocolsShowcaseB.visualizer numMediumVisualizers 1
par ManetprotocolsShowcaseB.visualizer numObstacleLossVisualizers 1
par ManetprotocolsShowcaseB.visualizer numPacketDropVisualizers 1
par ManetprotocolsShowcaseB.visualizer numQueueVisualizers 1
par ManetprotocolsShowcaseB.visualizer numGateScheduleVisualizers 1
par ManetprotocolsShowcaseB.visualizer numRadioVisualizers 1
par ManetprotocolsShowcaseB.visualizer numPhysicalLinkVisualizers 1
par ManetprotocolsShowcaseB.visualizer numInterfaceTableVisualizers 1
par ManetprotocolsShowcaseB.visualizer numDataLinkVisualizers 5
par ManetprotocolsShowcaseB.visualizer numLinkBreakVisualizers 1
par ManetprotocolsShowcaseB.visualizer numIeee80211Visualizers 1
par ManetprotocolsShowcaseB.visualizer numNetworkRouteVisualizers 1
par ManetprotocolsShowcaseB.visualizer numRoutingTableVisualizers 1
par ManetprotocolsShowcaseB.visualizer numTransportRouteVisualizers 1
par ManetprotocolsShowcaseB.visualizer numTransportConnectionVisualizers 1
par ManetprotocolsShowcaseB.visualizer numFailureProtectionConfigurationVisualizers 1
par ManetprotocolsShowcaseB.visualizer numStreamRedundancyConfigurationVisualizers 1
par ManetprotocolsShowcaseB.visualizer numChannelVisualizers 1
par ManetprotocolsShowcaseB typename "\"ManetprotocolsShowcaseB\""

